/*---------------------------------------------------------------------------*\
| =========                 |                                                 |
| \\      /  F ield         | OpenFOAM: The Open Source CFD Toolbox           |
|  \\    /   O peration     | Version:  2.4.0                                 |
|   \\  /    A nd           | Web:      www.OpenFOAM.org                      |
|    \\/     M anipulation  |                                                 |
\*---------------------------------------------------------------------------*/
Build  : 2.4.0-dcea1e13ff76
Exec   : compressibleInterFoam
Date   : Jan 30 2016
Time   : 15:56:19
Host   : "hpc01-Precision-T5610"
PID    : 3585
Case   : /home/hpc01/OpenFOAM/run/depthCharge2D
nProcs : 1
sigFpe : Enabling floating point exception trapping (FOAM_SIGFPE).
fileModificationChecking : Monitoring run-time modified files using timeStampMaster
allowSystemOperations : Allowing user-supplied system call operations

// * * * * * * * * * * * * * * * * * * * * * * * * * * * * * * * * * * * * * //
Create time

Create mesh for time = 0


Reading g

PIMPLE: Operating solver in PISO mode

Reading field p_rgh

Reading field U

Reading/calculating face flux field phi

Constructing twoPhaseMixtureThermo

Selecting thermodynamics package 
{
    type            heRhoThermo;
    mixture         pureMixture;
    transport       const;
    thermo          hConst;
    equationOfState perfectFluid;
    specie          specie;
    energy          sensibleInternalEnergy;
}

Selecting thermodynamics package 
{
    type            heRhoThermo;
    mixture         pureMixture;
    transport       const;
    thermo          hConst;
    equationOfState perfectGas;
    specie          specie;
    energy          sensibleInternalEnergy;
}

Reading thermophysical properties

Calculating field g.h

Selecting turbulence model type laminar
Creating field kinetic energy K

Courant Number mean: 0 max: 0

Starting time loop

Courant Number mean: 0 max: 0
deltaT = 0.00011904762
Time = 0.000119047619

PIMPLE: iteration 1
MULES: Solving for alpha.water
Liquid phase volume fraction = 0.48375  Min(alpha.water) = 0  Min(alpha.air) = 0
diagonal:  Solving for rho, Initial residual = 0, Final residual = 0, No Iterations 0
smoothSolver:  Solving for T, Initial residual = 4.5651072e-08, Final residual = 1.4979705e-15, No Iterations 1
min(T) 300
GAMG:  Solving for p_rgh, Initial residual = 0.29639733, Final residual = 0.00047137825, No Iterations 2
max(U) 3.8093461
min(p_rgh) 99998.67
GAMGPCG:  Solving for p_rgh, Initial residual = 0.00015159402, Final residual = 5.516117e-08, No Iterations 3
max(U) 2.9940138
min(p_rgh) 99998.815
ExecutionTime = 0.22 s


Courant Number mean: 0.00093662423 max: 0.024723893
deltaT = 0.00013945578
Time = 0.0002585034014

PIMPLE: iteration 1
MULES: Solving for alpha.water
Liquid phase volume fraction = 0.48371876  Min(alpha.water) = 0  Min(alpha.air) = -2.220446e-16
diagonal:  Solving for rho, Initial residual = 0, Final residual = 0, No Iterations 0
smoothSolver:  Solving for T, Initial residual = 5.8595357e-05, Final residual = 1.7321272e-09, No Iterations 1
min(T) 299.99772
GAMG:  Solving for p_rgh, Initial residual = 0.00055085787, Final residual = 4.004292e-06, No Iterations 4
max(U) 3.6549172
min(p_rgh) 100013.52
GAMGPCG:  Solving for p_rgh, Initial residual = 5.2464622e-06, Final residual = 3.8824375e-08, No Iterations 2
max(U) 3.6550746
min(p_rgh) 100013.56
ExecutionTime = 0.28 s


Courant Number mean: 0.0025065485 max: 0.036849669
deltaT = 0.00016349988
Time = 0.0004220032841

PIMPLE: iteration 1
MULES: Solving for alpha.water
Liquid phase volume fraction = 0.48363302  Min(alpha.water) = 0  Min(alpha.air) = -3.5527137e-15
diagonal:  Solving for rho, Initial residual = 0, Final residual = 0, No Iterations 0
smoothSolver:  Solving for T, Initial residual = 8.6115748e-05, Final residual = 6.0633889e-09, No Iterations 1
min(T) 299.99944
GAMG:  Solving for p_rgh, Initial residual = 0.00024199382, Final residual = 8.8170653e-07, No Iterations 5
max(U) 4.5312992
min(p_rgh) 100015.14
GAMGPCG:  Solving for p_rgh, Initial residual = 4.0245682e-06, Final residual = 2.9655154e-08, No Iterations 2
max(U) 4.5615465
min(p_rgh) 100015.14
ExecutionTime = 0.33 s


Courant Number mean: 0.0047210138 max: 0.053504958
deltaT = 0.00019074986
Time = 0.0006127531472

PIMPLE: iteration 1
MULES: Solving for alpha.water
Liquid phase volume fraction = 0.48353212  Min(alpha.water) = 0  Min(alpha.air) = -5.1070259e-15
diagonal:  Solving for rho, Initial residual = 0, Final residual = 0, No Iterations 0
smoothSolver:  Solving for T, Initial residual = 0.0001253646, Final residual = 5.9669839e-12, No Iterations 2
min(T) 299.9988
GAMG:  Solving for p_rgh, Initial residual = 0.00023443524, Final residual = 1.8382616e-06, No Iterations 4
max(U) 5.5572272
min(p_rgh) 100016.73
GAMGPCG:  Solving for p_rgh, Initial residual = 5.599048e-06, Final residual = 4.361718e-08, No Iterations 2
max(U) 5.6211636
min(p_rgh) 100016.77
ExecutionTime = 0.39 s


Courant Number mean: 0.0075266365 max: 0.076849437
deltaT = 0.00021936234
Time = 0.0008321154899

PIMPLE: iteration 1
MULES: Solving for alpha.water
Liquid phase volume fraction = 0.48343511  Min(alpha.water) = 0  Min(alpha.air) = -5.7731597e-15
diagonal:  Solving for rho, Initial residual = 0, Final residual = 0, No Iterations 0
smoothSolver:  Solving for T, Initial residual = 0.00016904168, Final residual = 2.5552043e-11, No Iterations 2
min(T) 299.99807
GAMG:  Solving for p_rgh, Initial residual = 0.00026413507, Final residual = 2.5869733e-06, No Iterations 4
max(U) 6.7971992
min(p_rgh) 100018.37
GAMGPCG:  Solving for p_rgh, Initial residual = 7.3250137e-06, Final residual = 4.4022558e-08, No Iterations 2
max(U) 6.9373381
min(p_rgh) 100018.51
ExecutionTime = 0.44 s


Courant Number mean: 0.010913539 max: 0.10732858
deltaT = 0.00026049278
Time = 0.001092608272

PIMPLE: iteration 1
MULES: Solving for alpha.water
Liquid phase volume fraction = 0.48336214  Min(alpha.water) = 0  Min(alpha.air) = -6.8833828e-15
diagonal:  Solving for rho, Initial residual = 0, Final residual = 0, No Iterations 0
smoothSolver:  Solving for T, Initial residual = 0.00022298969, Final residual = 1.1388017e-10, No Iterations 2
min(T) 299.9972
GAMG:  Solving for p_rgh, Initial residual = 0.00037323622, Final residual = 1.5704533e-06, No Iterations 5
max(U) 8.5409616
min(p_rgh) 100019.22
GAMGPCG:  Solving for p_rgh, Initial residual = 1.0799166e-05, Final residual = 7.9198135e-08, No Iterations 2
max(U) 8.8033416
min(p_rgh) 100019.08
ExecutionTime = 0.5 s


Courant Number mean: 0.016505696 max: 0.15611748
deltaT = 0.00030056859
Time = 0.001393176866

PIMPLE: iteration 1
MULES: Solving for alpha.water
Liquid phase volume fraction = 0.48334001  Min(alpha.water) = 0  Min(alpha.air) = -8.8817842e-15
diagonal:  Solving for rho, Initial residual = 0, Final residual = 0, No Iterations 0
smoothSolver:  Solving for T, Initial residual = 0.00027990562, Final residual = 5.0854486e-10, No Iterations 2
min(T) 299.99629
GAMG:  Solving for p_rgh, Initial residual = 0.00059362902, Final residual = 4.7005816e-06, No Iterations 3
max(U) 10.719793
min(p_rgh) 100020.96
GAMGPCG:  Solving for p_rgh, Initial residual = 1.8126297e-05, Final residual = 1.4062772e-08, No Iterations 3
max(U) 11.193414
min(p_rgh) 100018.86
ExecutionTime = 0.56 s


Courant Number mean: 0.025227087 max: 0.22334979
deltaT = 0.00032789301
Time = 0.001721069878

PIMPLE: iteration 1
MULES: Solving for alpha.water
Liquid phase volume fraction = 0.48337591  Min(alpha.water) = 0  Min(alpha.air) = -9.9920072e-15
diagonal:  Solving for rho, Initial residual = 0, Final residual = 0, No Iterations 0
smoothSolver:  Solving for T, Initial residual = 0.00041692135, Final residual = 2.0467507e-09, No Iterations 2
min(T) 299.9964
GAMG:  Solving for p_rgh, Initial residual = 0.00097942565, Final residual = 8.926235e-06, No Iterations 4
max(U) 13.358596
min(p_rgh) 100021.43
GAMGPCG:  Solving for p_rgh, Initial residual = 2.6796179e-05, Final residual = 3.1340501e-08, No Iterations 3
max(U) 14.049092
min(p_rgh) 100023.88
ExecutionTime = 0.64 s


Courant Number mean: 0.036057498 max: 0.30251309
deltaT = 0.00025222539
Time = 0.001973295272

PIMPLE: iteration 1
MULES: Solving for alpha.water
Liquid phase volume fraction = 0.48342458  Min(alpha.water) = 0  Min(alpha.air) = -7.9936058e-15
diagonal:  Solving for rho, Initial residual = 0, Final residual = 0, No Iterations 0
smoothSolver:  Solving for T, Initial residual = 0.00049680585, Final residual = 1.7185518e-09, No Iterations 2
min(T) 300.0002
GAMG:  Solving for p_rgh, Initial residual = 0.00079843425, Final residual = 7.727239e-06, No Iterations 3
max(U) 15.694139
min(p_rgh) 100037.2
GAMGPCG:  Solving for p_rgh, Initial residual = 2.4607267e-05, Final residual = 2.1699509e-08, No Iterations 3
max(U) 16.294621
min(p_rgh) 100035.87
ExecutionTime = 0.7 s


Courant Number mean: 0.033112724 max: 0.26905628
deltaT = 0.00023282344
Time = 0.002206118713

PIMPLE: iteration 1
MULES: Solving for alpha.water
Liquid phase volume fraction = 0.48346916  Min(alpha.water) = 0  Min(alpha.air) = -7.1054274e-15
diagonal:  Solving for rho, Initial residual = 0, Final residual = 0, No Iterations 0
smoothSolver:  Solving for T, Initial residual = 0.00045182654, Final residual = 2.6307377e-09, No Iterations 2
min(T) 300.00017
GAMG:  Solving for p_rgh, Initial residual = 0.00091317561, Final residual = 4.8585003e-06, No Iterations 3
max(U) 17.757355
min(p_rgh) 100060.51
GAMGPCG:  Solving for p_rgh, Initial residual = 2.295962e-05, Final residual = 1.7797515e-08, No Iterations 3
max(U) 18.362659
min(p_rgh) 100059.73
ExecutionTime = 0.76 s


Courant Number mean: 0.035151804 max: 0.27903759
deltaT = 0.00019956295
Time = 0.002405681662

PIMPLE: iteration 1
MULES: Solving for alpha.water
Liquid phase volume fraction = 0.4834993  Min(alpha.water) = 0  Min(alpha.air) = -6.2172489e-15
diagonal:  Solving for rho, Initial residual = 0, Final residual = 0, No Iterations 0
smoothSolver:  Solving for T, Initial residual = 0.00045754013, Final residual = 2.4713386e-09, No Iterations 2
min(T) 300.00015
GAMG:  Solving for p_rgh, Initial residual = 0.00083436432, Final residual = 4.0555966e-06, No Iterations 2
max(U) 19.528379
min(p_rgh) 100094.06
GAMGPCG:  Solving for p_rgh, Initial residual = 1.9940577e-05, Final residual = 7.5730548e-08, No Iterations 2
max(U) 20.011817
min(p_rgh) 100095.22
ExecutionTime = 0.81 s


Courant Number mean: 0.033600408 max: 0.26099902
deltaT = 0.00018530845
Time = 0.002590990115

PIMPLE: iteration 1
MULES: Solving for alpha.water
Liquid phase volume fraction = 0.4835179  Min(alpha.water) = 0  Min(alpha.air) = -5.5511151e-15
diagonal:  Solving for rho, Initial residual = 0, Final residual = 0, No Iterations 0
smoothSolver:  Solving for T, Initial residual = 0.00042143272, Final residual = 3.1497161e-09, No Iterations 2
min(T) 300.00014
GAMG:  Solving for p_rgh, Initial residual = 0.0008704089, Final residual = 2.4173139e-06, No Iterations 2
max(U) 20.703076
min(p_rgh) 100145.44
GAMGPCG:  Solving for p_rgh, Initial residual = 1.7304034e-05, Final residual = 6.3910006e-08, No Iterations 2
max(U) 21.045124
min(p_rgh) 100145.91
ExecutionTime = 0.87 s


Courant Number mean: 0.03425512 max: 0.25890008
deltaT = 0.00017207213
Time = 0.002763062249

PIMPLE: iteration 1
MULES: Solving for alpha.water
Liquid phase volume fraction = 0.48352667  Min(alpha.water) = 0  Min(alpha.air) = -5.3290705e-15
diagonal:  Solving for rho, Initial residual = 0, Final residual = 0, No Iterations 0
smoothSolver:  Solving for T, Initial residual = 0.00042764341, Final residual = 3.7104963e-09, No Iterations 2
min(T) 300.00014
GAMG:  Solving for p_rgh, Initial residual = 0.00083028167, Final residual = 2.0251587e-06, No Iterations 2
max(U) 20.360922
min(p_rgh) 100212.2
GAMGPCG:  Solving for p_rgh, Initial residual = 1.3893777e-05, Final residual = 5.6478723e-08, No Iterations 2
max(U) 20.347778
min(p_rgh) 100212.47
ExecutionTime = 0.92 s


Courant Number mean: 0.034440628 max: 0.25071225
deltaT = 0.00015978127
Time = 0.002922843517

PIMPLE: iteration 1
MULES: Solving for alpha.water
Liquid phase volume fraction = 0.48352875  Min(alpha.water) = 0  Min(alpha.air) = -4.8849813e-15
diagonal:  Solving for rho, Initial residual = 0, Final residual = 0, No Iterations 0
smoothSolver:  Solving for T, Initial residual = 0.00042566126, Final residual = 3.5121813e-09, No Iterations 2
min(T) 300.00014
GAMG:  Solving for p_rgh, Initial residual = 0.0007531839, Final residual = 2.2219214e-06, No Iterations 2
max(U) 19.269696
min(p_rgh) 100293.95
GAMGPCG:  Solving for p_rgh, Initial residual = 1.3379193e-05, Final residual = 5.0292704e-08, No Iterations 2
max(U) 19.251399
min(p_rgh) 100294.16
ExecutionTime = 0.97 s


Courant Number mean: 0.034068978 max: 0.23563237
deltaT = 0.00015978127
Time = 0.003082624785

PIMPLE: iteration 1
MULES: Solving for alpha.water
Liquid phase volume fraction = 0.48352678  Min(alpha.water) = 0  Min(alpha.air) = -4.8849813e-15
diagonal:  Solving for rho, Initial residual = 0, Final residual = 0, No Iterations 0
smoothSolver:  Solving for T, Initial residual = 0.00043426639, Final residual = 4.7566797e-09, No Iterations 2
min(T) 300.00014
GAMG:  Solving for p_rgh, Initial residual = 0.00068976578, Final residual = 2.0964979e-06, No Iterations 2
max(U) 18.110417
min(p_rgh) 100397.28
GAMGPCG:  Solving for p_rgh, Initial residual = 1.4082365e-05, Final residual = 5.6686875e-08, No Iterations 2
max(U) 17.879713
min(p_rgh) 100397.51
ExecutionTime = 1.02 s


Courant Number mean: 0.036002406 max: 0.22418908
deltaT = 0.00017430684
Time = 0.003256931623

PIMPLE: iteration 1
MULES: Solving for alpha.water
Liquid phase volume fraction = 0.48352293  Min(alpha.water) = 0  Min(alpha.air) = -5.3290705e-15
diagonal:  Solving for rho, Initial residual = 0, Final residual = 0, No Iterations 0
smoothSolver:  Solving for T, Initial residual = 0.00046057109, Final residual = 5.2187199e-09, No Iterations 2
min(T) 300.00015
GAMG:  Solving for p_rgh, Initial residual = 0.00068982726, Final residual = 2.8588206e-06, No Iterations 2
max(U) 16.219416
min(p_rgh) 100535.08
GAMGPCG:  Solving for p_rgh, Initial residual = 2.0830338e-05, Final residual = 9.1739805e-08, No Iterations 2
max(U) 16.329731
min(p_rgh) 100535.37
ExecutionTime = 1.08 s


Courant Number mean: 0.041379568 max: 0.25237347
deltaT = 0.00015846076
Time = 0.003415392384

PIMPLE: iteration 1
MULES: Solving for alpha.water
Liquid phase volume fraction = 0.4835192  Min(alpha.water) = 0  Min(alpha.air) = -4.8849813e-15
diagonal:  Solving for rho, Initial residual = 0, Final residual = 0, No Iterations 0
smoothSolver:  Solving for T, Initial residual = 0.00040292973, Final residual = 2.9623985e-09, No Iterations 2
min(T) 300.00015
GAMG:  Solving for p_rgh, Initial residual = 0.00059537989, Final residual = 1.8221352e-06, No Iterations 2
max(U) 17.72395
min(p_rgh) 100682.91
GAMGPCG:  Solving for p_rgh, Initial residual = 1.3793288e-05, Final residual = 5.6842591e-08, No Iterations 2
max(U) 17.87039
min(p_rgh) 100683.14
ExecutionTime = 1.13 s


Courant Number mean: 0.03937443 max: 0.24226941
deltaT = 0.00015846076
Time = 0.003573853146

PIMPLE: iteration 1
MULES: Solving for alpha.water
Liquid phase volume fraction = 0.48351732  Min(alpha.water) = 0  Min(alpha.air) = -5.1070259e-15
diagonal:  Solving for rho, Initial residual = 0, Final residual = 0, No Iterations 0
smoothSolver:  Solving for T, Initial residual = 0.00039787135, Final residual = 3.4195481e-09, No Iterations 2
min(T) 300.00016
GAMG:  Solving for p_rgh, Initial residual = 0.00061235732, Final residual = 1.8217336e-06, No Iterations 2
max(U) 19.16966
min(p_rgh) 100851
GAMGPCG:  Solving for p_rgh, Initial residual = 1.4421135e-05, Final residual = 5.1511475e-08, No Iterations 2
max(U) 19.377742
min(p_rgh) 100851.22
ExecutionTime = 1.18 s


Courant Number mean: 0.041064795 max: 0.25575534
deltaT = 0.00014261469
Time = 0.003716467831

PIMPLE: iteration 1
MULES: Solving for alpha.water
Liquid phase volume fraction = 0.4835179  Min(alpha.water) = 0  Min(alpha.air) = -4.4408921e-15
diagonal:  Solving for rho, Initial residual = 0, Final residual = 0, No Iterations 0
smoothSolver:  Solving for T, Initial residual = 0.00035574823, Final residual = 2.5971947e-09, No Iterations 2
min(T) 300.00016
GAMG:  Solving for p_rgh, Initial residual = 0.00056709443, Final residual = 1.1115957e-06, No Iterations 2
max(U) 20.312975
min(p_rgh) 101017.28
GAMGPCG:  Solving for p_rgh, Initial residual = 1.0116976e-05, Final residual = 3.29544e-08, No Iterations 2
max(U) 20.484254
min(p_rgh) 101017.48
ExecutionTime = 1.23 s


Courant Number mean: 0.038293213 max: 0.23755475
deltaT = 0.00014261469
Time = 0.003859082517

PIMPLE: iteration 1
MULES: Solving for alpha.water
Liquid phase volume fraction = 0.48352133  Min(alpha.water) = 0  Min(alpha.air) = -4.4408921e-15
diagonal:  Solving for rho, Initial residual = 0, Final residual = 0, No Iterations 0
smoothSolver:  Solving for T, Initial residual = 0.00035873859, Final residual = 2.9737853e-09, No Iterations 2
min(T) 300.00016
GAMG:  Solving for p_rgh, Initial residual = 0.00060147022, Final residual = 9.5847645e-07, No Iterations 2
max(U) 20.759149
min(p_rgh) 101195.46
GAMGPCG:  Solving for p_rgh, Initial residual = 1.0686093e-05, Final residual = 2.8287076e-08, No Iterations 2
max(U) 20.883155
min(p_rgh) 101195.63
ExecutionTime = 1.28 s


Courant Number mean: 0.039538139 max: 0.24145838
deltaT = 0.00014261469
Time = 0.004001697202

PIMPLE: iteration 1
MULES: Solving for alpha.water
Liquid phase volume fraction = 0.48352759  Min(alpha.water) = 0  Min(alpha.air) = -4.2188475e-15
diagonal:  Solving for rho, Initial residual = 0, Final residual = 0, No Iterations 0
smoothSolver:  Solving for T, Initial residual = 0.00036164932, Final residual = 3.1599835e-09, No Iterations 2
min(T) 300.00015
GAMG:  Solving for p_rgh, Initial residual = 0.00063891149, Final residual = 9.1253796e-07, No Iterations 2
max(U) 20.123903
min(p_rgh) 101382.44
GAMGPCG:  Solving for p_rgh, Initial residual = 1.1146345e-05, Final residual = 2.8899058e-08, No Iterations 2
max(U) 20.069996
min(p_rgh) 101382.66
ExecutionTime = 1.34 s


Courant Number mean: 0.040649116 max: 0.23385673
deltaT = 0.00014261469
Time = 0.004144311888

PIMPLE: iteration 1
MULES: Solving for alpha.water
Liquid phase volume fraction = 0.48353645  Min(alpha.water) = 0  Min(alpha.air) = -4.4408921e-15
diagonal:  Solving for rho, Initial residual = 0, Final residual = 0, No Iterations 0
smoothSolver:  Solving for T, Initial residual = 0.00035917082, Final residual = 3.2181285e-09, No Iterations 2
min(T) 300.00015
GAMG:  Solving for p_rgh, Initial residual = 0.00068671915, Final residual = 9.7987012e-07, No Iterations 2
max(U) 19.604516
min(p_rgh) 101575.13
GAMGPCG:  Solving for p_rgh, Initial residual = 1.2084519e-05, Final residual = 3.0710695e-08, No Iterations 2
max(U) 19.580367
min(p_rgh) 101575.35
ExecutionTime = 1.39 s


Courant Number mean: 0.041616779 max: 0.2308413
deltaT = 0.00014261469
Time = 0.004286926573

PIMPLE: iteration 1
MULES: Solving for alpha.water
Liquid phase volume fraction = 0.48354728  Min(alpha.water) = 0  Min(alpha.air) = -4.4408921e-15
diagonal:  Solving for rho, Initial residual = 0, Final residual = 0, No Iterations 0
smoothSolver:  Solving for T, Initial residual = 0.00034997065, Final residual = 2.6667453e-09, No Iterations 2
min(T) 300.00015
GAMG:  Solving for p_rgh, Initial residual = 0.00074267545, Final residual = 8.7938685e-07, No Iterations 2
max(U) 19.140342
min(p_rgh) 101769.17
GAMGPCG:  Solving for p_rgh, Initial residual = 1.312236e-05, Final residual = 3.401248e-08, No Iterations 2
max(U) 19.125966
min(p_rgh) 101769.39
ExecutionTime = 1.44 s


Courant Number mean: 0.042438995 max: 0.22817116
deltaT = 0.00014261469
Time = 0.004429541258

PIMPLE: iteration 1
MULES: Solving for alpha.water
Liquid phase volume fraction = 0.48355897  Min(alpha.water) = 0  Min(alpha.air) = -4.4408921e-15
diagonal:  Solving for rho, Initial residual = 0, Final residual = 0, No Iterations 0
smoothSolver:  Solving for T, Initial residual = 0.00034078801, Final residual = 2.7369762e-09, No Iterations 2
min(T) 300.00014
GAMG:  Solving for p_rgh, Initial residual = 0.00080847202, Final residual = 7.5559762e-06, No Iterations 1
max(U) 18.451913
min(p_rgh) 101939.58
GAMGPCG:  Solving for p_rgh, Initial residual = 1.8394863e-05, Final residual = 6.083047e-08, No Iterations 2
max(U) 18.489829
min(p_rgh) 101939.43
ExecutionTime = 1.49 s


Courant Number mean: 0.043188378 max: 0.23384126
deltaT = 0.00014261469
Time = 0.004572155944

PIMPLE: iteration 1
MULES: Solving for alpha.water
Liquid phase volume fraction = 0.48357079  Min(alpha.water) = 0  Min(alpha.air) = -4.2188475e-15
diagonal:  Solving for rho, Initial residual = 0, Final residual = 0, No Iterations 0
smoothSolver:  Solving for T, Initial residual = 0.00033526191, Final residual = 2.7429675e-09, No Iterations 2
min(T) 300.00014
GAMG:  Solving for p_rgh, Initial residual = 0.00088678407, Final residual = 7.3387084e-06, No Iterations 1
max(U) 19.344962
min(p_rgh) 102065.61
GAMGPCG:  Solving for p_rgh, Initial residual = 1.8006487e-05, Final residual = 6.0863213e-08, No Iterations 2
max(U) 19.43418
min(p_rgh) 102064.88
ExecutionTime = 1.54 s


Courant Number mean: 0.043872803 max: 0.23908692
deltaT = 0.00014261469
Time = 0.004714770629

PIMPLE: iteration 1
MULES: Solving for alpha.water
Liquid phase volume fraction = 0.4835822  Min(alpha.water) = 0  Min(alpha.air) = -4.2188475e-15
diagonal:  Solving for rho, Initial residual = 0, Final residual = 0, No Iterations 0
smoothSolver:  Solving for T, Initial residual = 0.00033204806, Final residual = 3.3953603e-09, No Iterations 2
min(T) 300.00013
GAMG:  Solving for p_rgh, Initial residual = 0.00096535993, Final residual = 6.645815e-06, No Iterations 1
max(U) 20.334353
min(p_rgh) 102187.87
GAMGPCG:  Solving for p_rgh, Initial residual = 1.7684254e-05, Final residual = 6.1538665e-08, No Iterations 2
max(U) 20.433249
min(p_rgh) 102187.7
ExecutionTime = 1.6 s


Courant Number mean: 0.04448103 max: 0.24774085
deltaT = 0.00014261469
Time = 0.004857385315

PIMPLE: iteration 1
MULES: Solving for alpha.water
Liquid phase volume fraction = 0.4835926  Min(alpha.water) = 0  Min(alpha.air) = -2.2870594e-14
diagonal:  Solving for rho, Initial residual = 0, Final residual = 0, No Iterations 0
smoothSolver:  Solving for T, Initial residual = 0.00032324203, Final residual = 3.7005732e-09, No Iterations 2
min(T) 300.00013
GAMG:  Solving for p_rgh, Initial residual = 0.0010497269, Final residual = 5.1996428e-06, No Iterations 1
max(U) 20.460816
min(p_rgh) 102315.86
GAMGPCG:  Solving for p_rgh, Initial residual = 1.7928603e-05, Final residual = 5.8351928e-08, No Iterations 2
max(U) 20.466812
min(p_rgh) 102316.32
ExecutionTime = 1.65 s


Courant Number mean: 0.044982497 max: 0.24686959
deltaT = 0.00014261469
Time = 0.005

PIMPLE: iteration 1
MULES: Solving for alpha.water
Liquid phase volume fraction = 0.4836015  Min(alpha.water) = 0  Min(alpha.air) = -1.3153922e-12
diagonal:  Solving for rho, Initial residual = 0, Final residual = 0, No Iterations 0
smoothSolver:  Solving for T, Initial residual = 0.00031629384, Final residual = 3.4928311e-09, No Iterations 2
min(T) 300.00013
GAMG:  Solving for p_rgh, Initial residual = 0.0011417821, Final residual = 4.6698597e-06, No Iterations 1
max(U) 20.475626
min(p_rgh) 102445.15
GAMGPCG:  Solving for p_rgh, Initial residual = 1.8005662e-05, Final residual = 4.8179952e-08, No Iterations 2
max(U) 20.490819
min(p_rgh) 102445.31
ExecutionTime = 1.89 s


Courant Number mean: 0.045394356 max: 0.24776154
deltaT = 0.00014285714
Time = 0.005142857143

PIMPLE: iteration 1
MULES: Solving for alpha.water
Liquid phase volume fraction = 0.48360907  Min(alpha.water) = 0  Min(alpha.air) = -1.8762769e-12
diagonal:  Solving for rho, Initial residual = 0, Final residual = 0, No Iterations 0
smoothSolver:  Solving for T, Initial residual = 0.00031088812, Final residual = 3.2372185e-09, No Iterations 2
min(T) 300.00013
GAMG:  Solving for p_rgh, Initial residual = 0.0012008953, Final residual = 5.3872801e-06, No Iterations 1
max(U) 20.324026
min(p_rgh) 102568.9
GAMGPCG:  Solving for p_rgh, Initial residual = 1.9456571e-05, Final residual = 6.0744e-08, No Iterations 2
max(U) 20.32988
min(p_rgh) 102568.92
ExecutionTime = 1.94 s


Courant Number mean: 0.045801871 max: 0.24757135
deltaT = 0.00014285714
Time = 0.005285714286

PIMPLE: iteration 1
MULES: Solving for alpha.water
Liquid phase volume fraction = 0.4836151  Min(alpha.water) = 0  Min(alpha.air) = -1.7441604e-12
diagonal:  Solving for rho, Initial residual = 0, Final residual = 0, No Iterations 0
smoothSolver:  Solving for T, Initial residual = 0.00030630018, Final residual = 3.600234e-09, No Iterations 2
min(T) 300.00013
GAMG:  Solving for p_rgh, Initial residual = 0.0012020538, Final residual = 5.9876552e-06, No Iterations 1
max(U) 19.958179
min(p_rgh) 102689.65
GAMGPCG:  Solving for p_rgh, Initial residual = 2.0617249e-05, Final residual = 6.372471e-08, No Iterations 2
max(U) 19.939433
min(p_rgh) 102689.19
ExecutionTime = 1.99 s


Courant Number mean: 0.046068736 max: 0.24512787
deltaT = 0.00014285714
Time = 0.005428571429

PIMPLE: iteration 1
MULES: Solving for alpha.water
Liquid phase volume fraction = 0.48361999  Min(alpha.water) = 0  Min(alpha.air) = -1.6193713e-12
diagonal:  Solving for rho, Initial residual = 0, Final residual = 0, No Iterations 0
smoothSolver:  Solving for T, Initial residual = 0.00029643047, Final residual = 3.205823e-09, No Iterations 2
min(T) 300.00013
GAMG:  Solving for p_rgh, Initial residual = 0.001193797, Final residual = 7.5313266e-06, No Iterations 1
max(U) 19.174704
min(p_rgh) 102804.72
GAMGPCG:  Solving for p_rgh, Initial residual = 2.2961236e-05, Final residual = 6.9261142e-08, No Iterations 2
max(U) 19.064988
min(p_rgh) 102806.03
ExecutionTime = 2.04 s


Courant Number mean: 0.046279427 max: 0.24121139
deltaT = 0.00014746544
Time = 0.005576036866

PIMPLE: iteration 1
MULES: Solving for alpha.water
Liquid phase volume fraction = 0.48362426  Min(alpha.water) = 0  Min(alpha.air) = -1.4976909e-12
diagonal:  Solving for rho, Initial residual = 0, Final residual = 0, No Iterations 0
smoothSolver:  Solving for T, Initial residual = 0.00029936004, Final residual = 3.8565531e-09, No Iterations 2
min(T) 300.00013
GAMG:  Solving for p_rgh, Initial residual = 0.0012478742, Final residual = 8.6819808e-06, No Iterations 1
max(U) 19.678417
min(p_rgh) 102909.78
GAMGPCG:  Solving for p_rgh, Initial residual = 2.569398e-05, Final residual = 8.2591734e-08, No Iterations 2
max(U) 19.742629
min(p_rgh) 102916.06
ExecutionTime = 2.09 s


Courant Number mean: 0.047957625 max: 0.25276894
deltaT = 0.00014270849
Time = 0.005718745355

PIMPLE: iteration 1
MULES: Solving for alpha.water
Liquid phase volume fraction = 0.48362838  Min(alpha.water) = 0  Min(alpha.air) = -1.3868906e-12
diagonal:  Solving for rho, Initial residual = 0, Final residual = 0, No Iterations 0
smoothSolver:  Solving for T, Initial residual = 0.00028141115, Final residual = 3.075032e-09, No Iterations 2
min(T) 300.00013
GAMG:  Solving for p_rgh, Initial residual = 0.0011719036, Final residual = 8.6913026e-06, No Iterations 1
max(U) 20.194057
min(p_rgh) 103022.8
GAMGPCG:  Solving for p_rgh, Initial residual = 2.5772918e-05, Final residual = 6.3718034e-08, No Iterations 2
max(U) 20.239245
min(p_rgh) 103029.61
ExecutionTime = 2.14 s


Courant Number mean: 0.046542687 max: 0.24867864
deltaT = 0.00014270849
Time = 0.005861453843

PIMPLE: iteration 1
MULES: Solving for alpha.water
Liquid phase volume fraction = 0.48363273  Min(alpha.water) = 0  Min(alpha.air) = -1.2825296e-12
diagonal:  Solving for rho, Initial residual = 0, Final residual = 0, No Iterations 0
smoothSolver:  Solving for T, Initial residual = 0.00027372522, Final residual = 2.7570893e-09, No Iterations 2
min(T) 300.00013
GAMG:  Solving for p_rgh, Initial residual = 0.0011517313, Final residual = 9.1887551e-06, No Iterations 1
max(U) 20.232659
min(p_rgh) 103156.52
GAMGPCG:  Solving for p_rgh, Initial residual = 2.6324538e-05, Final residual = 6.4897142e-08, No Iterations 2
max(U) 20.219788
min(p_rgh) 103161.83
ExecutionTime = 2.19 s


Courant Number mean: 0.046666723 max: 0.24821307
deltaT = 0.00014270849
Time = 0.006004162331

PIMPLE: iteration 1
MULES: Solving for alpha.water
Liquid phase volume fraction = 0.48363783  Min(alpha.water) = 0  Min(alpha.air) = -1.18483e-12
diagonal:  Solving for rho, Initial residual = 0, Final residual = 0, No Iterations 0
smoothSolver:  Solving for T, Initial residual = 0.00026434479, Final residual = 2.1474643e-09, No Iterations 2
min(T) 300.00013
GAMG:  Solving for p_rgh, Initial residual = 0.001187904, Final residual = 9.7673928e-06, No Iterations 1
max(U) 19.891643
min(p_rgh) 103296.86
GAMGPCG:  Solving for p_rgh, Initial residual = 2.5987241e-05, Final residual = 6.6341082e-08, No Iterations 2
max(U) 19.852919
min(p_rgh) 103295.39
ExecutionTime = 2.25 s


Courant Number mean: 0.04681017 max: 0.24409065
deltaT = 0.00014270849
Time = 0.006146870819

PIMPLE: iteration 1
MULES: Solving for alpha.water
Liquid phase volume fraction = 0.48364356  Min(alpha.water) = 0  Min(alpha.air) = -1.0933476e-12
diagonal:  Solving for rho, Initial residual = 0, Final residual = 0, No Iterations 0
smoothSolver:  Solving for T, Initial residual = 0.00025620501, Final residual = 2.2721167e-09, No Iterations 2
min(T) 300.00013
GAMG:  Solving for p_rgh, Initial residual = 0.001252159, Final residual = 9.7366325e-06, No Iterations 1
max(U) 19.554912
min(p_rgh) 103451.81
GAMGPCG:  Solving for p_rgh, Initial residual = 2.5873971e-05, Final residual = 6.2133826e-08, No Iterations 2
max(U) 19.533438
min(p_rgh) 103449.53
ExecutionTime = 2.3 s


Courant Number mean: 0.046988512 max: 0.24281076
deltaT = 0.00014270849
Time = 0.006289579307

PIMPLE: iteration 1
MULES: Solving for alpha.water
Liquid phase volume fraction = 0.48364993  Min(alpha.water) = 0  Min(alpha.air) = -1.0076384e-12
diagonal:  Solving for rho, Initial residual = 0, Final residual = 0, No Iterations 0
smoothSolver:  Solving for T, Initial residual = 0.00024844141, Final residual = 2.5727692e-09, No Iterations 2
min(T) 300.00013
GAMG:  Solving for p_rgh, Initial residual = 0.0013273673, Final residual = 1.0178196e-05, No Iterations 1
max(U) 19.197151
min(p_rgh) 103625.97
GAMGPCG:  Solving for p_rgh, Initial residual = 2.6237383e-05, Final residual = 7.0587674e-08, No Iterations 2
max(U) 19.180837
min(p_rgh) 103624.78
ExecutionTime = 2.35 s


Courant Number mean: 0.047210942 max: 0.24093498
deltaT = 0.00014270849
Time = 0.006432287795

PIMPLE: iteration 1
MULES: Solving for alpha.water
Liquid phase volume fraction = 0.48365711  Min(alpha.water) = 0  Min(alpha.air) = -9.2725827e-13
diagonal:  Solving for rho, Initial residual = 0, Final residual = 0, No Iterations 0
smoothSolver:  Solving for T, Initial residual = 0.00024159192, Final residual = 2.4511283e-09, No Iterations 2
min(T) 300.00013
GAMG:  Solving for p_rgh, Initial residual = 0.0014119004, Final residual = 1.1106894e-05, No Iterations 1
max(U) 18.760221
min(p_rgh) 103814.23
GAMGPCG:  Solving for p_rgh, Initial residual = 2.8817161e-05, Final residual = 7.4424219e-08, No Iterations 2
max(U) 18.711601
min(p_rgh) 103814.22
ExecutionTime = 2.41 s


Courant Number mean: 0.047466901 max: 0.23796122
deltaT = 0.00014865468
Time = 0.006580942471

PIMPLE: iteration 1
MULES: Solving for alpha.water
Liquid phase volume fraction = 0.48366557  Min(alpha.water) = 0  Min(alpha.air) = -8.4932061e-13
diagonal:  Solving for rho, Initial residual = 0, Final residual = 0, No Iterations 0
smoothSolver:  Solving for T, Initial residual = 0.00024418948, Final residual = 2.361326e-09, No Iterations 2
min(T) 300.00012
GAMG:  Solving for p_rgh, Initial residual = 0.0016018006, Final residual = 1.385783e-05, No Iterations 1
max(U) 18.870673
min(p_rgh) 104017.66
GAMGPCG:  Solving for p_rgh, Initial residual = 3.4606203e-05, Final residual = 8.3541375e-08, No Iterations 2
max(U) 18.862929
min(p_rgh) 104018.54
ExecutionTime = 2.46 s


Courant Number mean: 0.049759313 max: 0.24504572
deltaT = 0.00014865468
Time = 0.006729597146

PIMPLE: iteration 1
MULES: Solving for alpha.water
Liquid phase volume fraction = 0.48367467  Min(alpha.water) = 0  Min(alpha.air) = -6.5583095e-12
diagonal:  Solving for rho, Initial residual = 0, Final residual = 0, No Iterations 0
smoothSolver:  Solving for T, Initial residual = 0.00023785362, Final residual = 2.0021059e-09, No Iterations 2
min(T) 299.1527
GAMG:  Solving for p_rgh, Initial residual = 0.001739862, Final residual = 1.5918542e-05, No Iterations 1
max(U) 18.877485
min(p_rgh) 104218.91
GAMGPCG:  Solving for p_rgh, Initial residual = 3.818594e-05, Final residual = 9.5311562e-08, No Iterations 2
max(U) 18.85039
min(p_rgh) 104219.73
ExecutionTime = 2.51 s


Courant Number mean: 0.050115968 max: 0.24589944
deltaT = 0.00014865468
Time = 0.006878251821

PIMPLE: iteration 1
MULES: Solving for alpha.water
Liquid phase volume fraction = 0.48368415  Min(alpha.water) = -5.4973536e-14  Min(alpha.air) = -1.2090773e-11
diagonal:  Solving for rho, Initial residual = 0, Final residual = 0, No Iterations 0
smoothSolver:  Solving for T, Initial residual = 0.00023013064, Final residual = 1.9448442e-09, No Iterations 2
min(T) 297.89081
GAMG:  Solving for p_rgh, Initial residual = 0.0018264839, Final residual = 1.7562077e-05, No Iterations 1
max(U) 18.742415
min(p_rgh) 104404.77
GAMGPCG:  Solving for p_rgh, Initial residual = 4.0460236e-05, Final residual = 8.9351036e-08, No Iterations 2
max(U) 18.7251
min(p_rgh) 104404.44
ExecutionTime = 2.56 s


Courant Number mean: 0.050520016 max: 0.2450596
deltaT = 0.00014865468
Time = 0.007026906496

PIMPLE: iteration 1
MULES: Solving for alpha.water
Liquid phase volume fraction = 0.48369342  Min(alpha.water) = -4.813473e-14  Min(alpha.air) = -1.5748514e-11
diagonal:  Solving for rho, Initial residual = 0, Final residual = 0, No Iterations 0
smoothSolver:  Solving for T, Initial residual = 0.00022557701, Final residual = 2.2000856e-09, No Iterations 2
min(T) 296.66657
GAMG:  Solving for p_rgh, Initial residual = 0.0018579731, Final residual = 1.8384935e-05, No Iterations 1
max(U) 18.5906
min(p_rgh) 104561.99
GAMGPCG:  Solving for p_rgh, Initial residual = 4.239392e-05, Final residual = 9.1450742e-08, No Iterations 2
max(U) 18.58298
min(p_rgh) 104560.8
ExecutionTime = 2.61 s


Courant Number mean: 0.050968489 max: 0.24450082
deltaT = 0.00014865468
Time = 0.007175561171

PIMPLE: iteration 1
MULES: Solving for alpha.water
Liquid phase volume fraction = 0.48370229  Min(alpha.water) = -4.2240425e-14  Min(alpha.air) = -1.4379831e-11
diagonal:  Solving for rho, Initial residual = 0, Final residual = 0, No Iterations 0
smoothSolver:  Solving for T, Initial residual = 0.00021985957, Final residual = 1.6263125e-09, No Iterations 2
min(T) 295.5346
GAMG:  Solving for p_rgh, Initial residual = 0.0019163933, Final residual = 1.8206075e-05, No Iterations 1
max(U) 18.374161
min(p_rgh) 104699.44
GAMGPCG:  Solving for p_rgh, Initial residual = 4.2701632e-05, Final residual = 9.0362391e-08, No Iterations 2
max(U) 18.370696
min(p_rgh) 104698.57
ExecutionTime = 2.66 s


Courant Number mean: 0.051472514 max: 0.2437729
deltaT = 0.00014865468
Time = 0.007324215847

PIMPLE: iteration 1
MULES: Solving for alpha.water
Liquid phase volume fraction = 0.48371108  Min(alpha.water) = -3.7025547e-14  Min(alpha.air) = -1.3116397e-11
diagonal:  Solving for rho, Initial residual = 0, Final residual = 0, No Iterations 0
smoothSolver:  Solving for T, Initial residual = 0.00021487892, Final residual = 1.726792e-09, No Iterations 2
min(T) 294.47899
GAMG:  Solving for p_rgh, Initial residual = 0.0019992005, Final residual = 1.6818774e-05, No Iterations 1
max(U) 17.99962
min(p_rgh) 104832.37
GAMGPCG:  Solving for p_rgh, Initial residual = 4.3518231e-05, Final residual = 9.0572587e-08, No Iterations 2
max(U) 17.961345
min(p_rgh) 104831.76
ExecutionTime = 2.71 s


Courant Number mean: 0.052028658 max: 0.2401291
deltaT = 0.00014865468
Time = 0.007472870522

PIMPLE: iteration 1
MULES: Solving for alpha.water
Liquid phase volume fraction = 0.48371944  Min(alpha.water) = -3.243164e-14  Min(alpha.air) = -1.1951329e-11
diagonal:  Solving for rho, Initial residual = 0, Final residual = 0, No Iterations 0
smoothSolver:  Solving for T, Initial residual = 0.00020998416, Final residual = 1.6198378e-09, No Iterations 2
min(T) 293.5104
GAMG:  Solving for p_rgh, Initial residual = 0.0020778376, Final residual = 1.5751414e-05, No Iterations 1
max(U) 17.937741
min(p_rgh) 104961.91
GAMGPCG:  Solving for p_rgh, Initial residual = 4.3877792e-05, Final residual = 9.6170318e-08, No Iterations 2
max(U) 17.947047
min(p_rgh) 104961.45
ExecutionTime = 2.76 s


Courant Number mean: 0.052638702 max: 0.23742207
deltaT = 0.00014865468
Time = 0.007621525197

PIMPLE: iteration 1
MULES: Solving for alpha.water
Liquid phase volume fraction = 0.48372717  Min(alpha.water) = -2.8391212e-14  Min(alpha.air) = -1.0878853e-11
diagonal:  Solving for rho, Initial residual = 0, Final residual = 0, No Iterations 0
smoothSolver:  Solving for T, Initial residual = 0.00020574503, Final residual = 1.6614905e-09, No Iterations 2
min(T) 292.62486
GAMG:  Solving for p_rgh, Initial residual = 0.0021102189, Final residual = 1.4991345e-05, No Iterations 1
max(U) 17.961066
min(p_rgh) 105091.93
GAMGPCG:  Solving for p_rgh, Initial residual = 4.3737207e-05, Final residual = 9.7341999e-08, No Iterations 2
max(U) 17.948566
min(p_rgh) 105091.27
ExecutionTime = 2.81 s


Courant Number mean: 0.053304704 max: 0.23445581
deltaT = 0.00014865468
Time = 0.007770179872

PIMPLE: iteration 1
MULES: Solving for alpha.water
Liquid phase volume fraction = 0.48373444  Min(alpha.water) = -2.4821999e-14  Min(alpha.air) = -9.8929753e-12
diagonal:  Solving for rho, Initial residual = 0, Final residual = 0, No Iterations 0
smoothSolver:  Solving for T, Initial residual = 0.00020256014, Final residual = 1.7991333e-09, No Iterations 2
min(T) 291.81797
GAMG:  Solving for p_rgh, Initial residual = 0.0021116407, Final residual = 1.3680853e-05, No Iterations 1
max(U) 17.916554
min(p_rgh) 105225.17
GAMGPCG:  Solving for p_rgh, Initial residual = 4.2962017e-05, Final residual = 7.7981602e-09, No Iterations 3
max(U) 17.912445
min(p_rgh) 105224.32
ExecutionTime = 2.87 s


Courant Number mean: 0.054023883 max: 0.233272
deltaT = 0.00015927287
Time = 0.007929452738

PIMPLE: iteration 1
MULES: Solving for alpha.water
Liquid phase volume fraction = 0.48374218  Min(alpha.water) = -2.1478839e-14  Min(alpha.air) = -8.9228624e-12
diagonal:  Solving for rho, Initial residual = 0, Final residual = 0, No Iterations 0
smoothSolver:  Solving for T, Initial residual = 0.00021112657, Final residual = 2.1667174e-09, No Iterations 2
min(T) 291.04076
GAMG:  Solving for p_rgh, Initial residual = 0.0024088297, Final residual = 1.4841712e-05, No Iterations 1
max(U) 17.773643
min(p_rgh) 105374.34
GAMGPCG:  Solving for p_rgh, Initial residual = 4.8087922e-05, Final residual = 7.1754443e-09, No Iterations 3
max(U) 17.785568
min(p_rgh) 105373.07
ExecutionTime = 2.93 s


Courant Number mean: 0.05878061 max: 0.25048966
deltaT = 0.00014789623
Time = 0.008077348971

PIMPLE: iteration 1
MULES: Solving for alpha.water
Liquid phase volume fraction = 0.48374921  Min(alpha.water) = -1.8792971e-14  Min(alpha.air) = -8.1021856e-12
diagonal:  Solving for rho, Initial residual = 0, Final residual = 0, No Iterations 0
smoothSolver:  Solving for T, Initial residual = 0.00019093958, Final residual = 1.4447928e-09, No Iterations 2
min(T) 290.37993
GAMG:  Solving for p_rgh, Initial residual = 0.0023556431, Final residual = 1.0317948e-05, No Iterations 1
max(U) 17.541762
min(p_rgh) 105520.02
GAMGPCG:  Solving for p_rgh, Initial residual = 3.9482148e-05, Final residual = 6.1341113e-09, No Iterations 3
max(U) 17.533037
min(p_rgh) 105519.19
ExecutionTime = 2.99 s


Courant Number mean: 0.055403148 max: 0.23005663
deltaT = 0.00016022092
Time = 0.00823756989

PIMPLE: iteration 1
MULES: Solving for alpha.water
Liquid phase volume fraction = 0.48375701  Min(alpha.water) = -4.5301132e-10  Min(alpha.air) = -2.0496715e-11
diagonal:  Solving for rho, Initial residual = 0, Final residual = 0, No Iterations 0
smoothSolver:  Solving for T, Initial residual = 0.00020227102, Final residual = 2.1994932e-09, No Iterations 2
min(T) 289.73042
GAMG:  Solving for p_rgh, Initial residual = 0.0028185613, Final residual = 1.1009453e-05, No Iterations 1
max(U) 17.272043
min(p_rgh) 105690.16
GAMGPCG:  Solving for p_rgh, Initial residual = 4.6452489e-05, Final residual = 7.5616448e-09, No Iterations 3
max(U) 17.260635
min(p_rgh) 105689.29
ExecutionTime = 3.05 s


Courant Number mean: 0.060996752 max: 0.24757668
deltaT = 0.00016022092
Time = 0.00839779081

PIMPLE: iteration 1
MULES: Solving for alpha.water
Liquid phase volume fraction = 0.48376496  Min(alpha.water) = -3.7351334e-10  Min(alpha.air) = -5.8587357e-11
diagonal:  Solving for rho, Initial residual = 0, Final residual = 0, No Iterations 0
smoothSolver:  Solving for T, Initial residual = 0.0001981867, Final residual = 2.0516451e-09, No Iterations 2
min(T) 289.13063
GAMG:  Solving for p_rgh, Initial residual = 0.0029171404, Final residual = 1.1237386e-05, No Iterations 1
max(U) 17.285343
min(p_rgh) 105873.97
GAMGPCG:  Solving for p_rgh, Initial residual = 4.8426567e-05, Final residual = 1.1225448e-08, No Iterations 3
max(U) 17.274796
min(p_rgh) 105873.61
ExecutionTime = 3.11 s


Courant Number mean: 0.061972314 max: 0.24551441
deltaT = 0.00016022092
Time = 0.008558011729

PIMPLE: iteration 1
MULES: Solving for alpha.water
Liquid phase volume fraction = 0.48377295  Min(alpha.water) = -1.2081536e-14  Min(alpha.air) = -6.8085093e-11
diagonal:  Solving for rho, Initial residual = 0, Final residual = 0, No Iterations 0
smoothSolver:  Solving for T, Initial residual = 0.00019533378, Final residual = 2.2656636e-09, No Iterations 2
min(T) 288.58917
GAMG:  Solving for p_rgh, Initial residual = 0.0029251379, Final residual = 1.0815423e-05, No Iterations 1
max(U) 17.256609
min(p_rgh) 106069.84
GAMGPCG:  Solving for p_rgh, Initial residual = 5.0183582e-05, Final residual = 1.3898946e-08, No Iterations 3
max(U) 17.252059
min(p_rgh) 106069.76
ExecutionTime = 3.17 s


Courant Number mean: 0.062911088 max: 0.24354812
deltaT = 0.00016022092
Time = 0.008718232648

PIMPLE: iteration 1
MULES: Solving for alpha.water
Liquid phase volume fraction = 0.48378139  Min(alpha.water) = -1.0403517e-14  Min(alpha.air) = -6.0996985e-11
diagonal:  Solving for rho, Initial residual = 0, Final residual = 0, No Iterations 0
smoothSolver:  Solving for T, Initial residual = 0.00019113744, Final residual = 1.8492515e-09, No Iterations 2
min(T) 288.08667
GAMG:  Solving for p_rgh, Initial residual = 0.0030510436, Final residual = 1.2141467e-05, No Iterations 1
max(U) 17.152479
min(p_rgh) 106279.25
GAMGPCG:  Solving for p_rgh, Initial residual = 5.4254566e-05, Final residual = 1.731055e-08, No Iterations 3
max(U) 17.14972
min(p_rgh) 106279.73
ExecutionTime = 3.23 s


Courant Number mean: 0.063819977 max: 0.24166042
deltaT = 0.00016022092
Time = 0.008878453567

PIMPLE: iteration 1
MULES: Solving for alpha.water
Liquid phase volume fraction = 0.48379076  Min(alpha.water) = -8.9527074e-15  Min(alpha.air) = -5.4595217e-11
diagonal:  Solving for rho, Initial residual = 0, Final residual = 0, No Iterations 0
smoothSolver:  Solving for T, Initial residual = 0.00018691514, Final residual = 1.8294625e-09, No Iterations 2
min(T) 287.66818
GAMG:  Solving for p_rgh, Initial residual = 0.0031904615, Final residual = 1.3944274e-05, No Iterations 1
max(U) 16.951599
min(p_rgh) 106503.49
GAMGPCG:  Solving for p_rgh, Initial residual = 5.8549357e-05, Final residual = 1.9857617e-08, No Iterations 3
max(U) 16.944182
min(p_rgh) 106504.51
ExecutionTime = 3.29 s


Courant Number mean: 0.064672199 max: 0.23917775
deltaT = 0.00016022092
Time = 0.009038674486

PIMPLE: iteration 1
MULES: Solving for alpha.water
Liquid phase volume fraction = 0.48379992  Min(alpha.water) = -7.7032499e-15  Min(alpha.air) = -4.8819615e-11
diagonal:  Solving for rho, Initial residual = 0, Final residual = 0, No Iterations 0
smoothSolver:  Solving for T, Initial residual = 0.00018353868, Final residual = 1.8686194e-09, No Iterations 2
min(T) 287.35453
GAMG:  Solving for p_rgh, Initial residual = 0.0033123801, Final residual = 1.6910546e-05, No Iterations 1
max(U) 16.789079
min(p_rgh) 106741.76
GAMGPCG:  Solving for p_rgh, Initial residual = 6.2832943e-05, Final residual = 2.0696504e-08, No Iterations 3
max(U) 16.795122
min(p_rgh) 106743.31
ExecutionTime = 3.35 s


Courant Number mean: 0.065461176 max: 0.23851989
deltaT = 0.00016022092
Time = 0.009198895405

PIMPLE: iteration 1
MULES: Solving for alpha.water
Liquid phase volume fraction = 0.48380885  Min(alpha.water) = -6.6336701e-15  Min(alpha.air) = -4.3615556e-11
diagonal:  Solving for rho, Initial residual = 0, Final residual = 0, No Iterations 0
smoothSolver:  Solving for T, Initial residual = 0.00017938061, Final residual = 2.0485504e-09, No Iterations 2
min(T) 287.07823
GAMG:  Solving for p_rgh, Initial residual = 0.0034882457, Final residual = 2.098392e-05, No Iterations 1
max(U) 16.71979
min(p_rgh) 106992.59
GAMGPCG:  Solving for p_rgh, Initial residual = 6.7464257e-05, Final residual = 2.0284951e-08, No Iterations 3
max(U) 16.7227
min(p_rgh) 106994.59
ExecutionTime = 3.41 s


Courant Number mean: 0.066177615 max: 0.23760874
deltaT = 0.00016022092
Time = 0.009359116324

PIMPLE: iteration 1
MULES: Solving for alpha.water
Liquid phase volume fraction = 0.48381756  Min(alpha.water) = -5.9991948e-15  Min(alpha.air) = -3.8932413e-11
diagonal:  Solving for rho, Initial residual = 0, Final residual = 0, No Iterations 0
smoothSolver:  Solving for T, Initial residual = 0.00017647691, Final residual = 1.7430437e-09, No Iterations 2
min(T) 286.3828
GAMG:  Solving for p_rgh, Initial residual = 0.0036318129, Final residual = 2.7019984e-05, No Iterations 1
max(U) 16.759706
min(p_rgh) 107253.79
GAMGPCG:  Solving for p_rgh, Initial residual = 7.5023657e-05, Final residual = 2.0738137e-08, No Iterations 3
max(U) 16.780729
min(p_rgh) 107256.22
ExecutionTime = 3.47 s


Courant Number mean: 0.066827496 max: 0.23788104
deltaT = 0.00016022092
Time = 0.009519337243

PIMPLE: iteration 1
MULES: Solving for alpha.water
Liquid phase volume fraction = 0.48382673  Min(alpha.water) = -5.6468833e-15  Min(alpha.air) = -3.4722447e-11
diagonal:  Solving for rho, Initial residual = 0, Final residual = 0, No Iterations 0
smoothSolver:  Solving for T, Initial residual = 0.00017430598, Final residual = 1.8490895e-09, No Iterations 2
min(T) 285.06582
GAMG:  Solving for p_rgh, Initial residual = 0.0037701308, Final residual = 3.1518443e-05, No Iterations 1
max(U) 16.578318
min(p_rgh) 107521.05
GAMGPCG:  Solving for p_rgh, Initial residual = 8.3725804e-05, Final residual = 2.2079962e-08, No Iterations 3
max(U) 16.563592
min(p_rgh) 107522.93
ExecutionTime = 3.53 s


Courant Number mean: 0.067379797 max: 0.23441052
deltaT = 0.00016022092
Time = 0.009679558162

PIMPLE: iteration 1
MULES: Solving for alpha.water
Liquid phase volume fraction = 0.48383581  Min(alpha.water) = -5.2768174e-15  Min(alpha.air) = -6.5451644e-11
diagonal:  Solving for rho, Initial residual = 0, Final residual = 0, No Iterations 0
smoothSolver:  Solving for T, Initial residual = 0.000169584, Final residual = 1.8753252e-09, No Iterations 2
min(T) 283.78067
GAMG:  Solving for p_rgh, Initial residual = 0.0040232887, Final residual = 3.8704346e-05, No Iterations 1
max(U) 16.389464
min(p_rgh) 107788.25
GAMGPCG:  Solving for p_rgh, Initial residual = 9.2108965e-05, Final residual = 2.3194712e-08, No Iterations 3
max(U) 16.390392
min(p_rgh) 107790.05
ExecutionTime = 3.59 s


Courant Number mean: 0.067877653 max: 0.23119915
deltaT = 0.00016022092
Time = 0.009839779081

PIMPLE: iteration 1
MULES: Solving for alpha.water
Liquid phase volume fraction = 0.4838441  Min(alpha.water) = -4.8988813e-15  Min(alpha.air) = -1.3200463e-10
diagonal:  Solving for rho, Initial residual = 0, Final residual = 0, No Iterations 0
smoothSolver:  Solving for T, Initial residual = 0.00016801624, Final residual = 1.8617779e-09, No Iterations 2
min(T) 282.51179
GAMG:  Solving for p_rgh, Initial residual = 0.0040788784, Final residual = 4.9257781e-06, No Iterations 2
max(U) 16.279422
min(p_rgh) 108060.95
GAMGPCG:  Solving for p_rgh, Initial residual = 6.2928201e-05, Final residual = 1.6204168e-08, No Iterations 3
max(U) 16.282259
min(p_rgh) 108061.43
ExecutionTime = 3.65 s


Courant Number mean: 0.068280314 max: 0.2298931
deltaT = 0.00016022092
Time = 0.01

PIMPLE: iteration 1
MULES: Solving for alpha.water
Liquid phase volume fraction = 0.48385208  Min(alpha.water) = -4.5206652e-15  Min(alpha.air) = -1.1917001e-10
diagonal:  Solving for rho, Initial residual = 0, Final residual = 0, No Iterations 0
smoothSolver:  Solving for T, Initial residual = 0.00016513412, Final residual = 1.8262526e-09, No Iterations 2
min(T) 281.25031
GAMG:  Solving for p_rgh, Initial residual = 0.0042072681, Final residual = 5.5327717e-06, No Iterations 2
max(U) 16.173608
min(p_rgh) 108335.53
GAMGPCG:  Solving for p_rgh, Initial residual = 6.3892527e-05, Final residual = 1.5746547e-08, No Iterations 3
max(U) 16.165475
min(p_rgh) 108335.96
ExecutionTime = 3.9 s


Courant Number mean: 0.0685859 max: 0.2304932
deltaT = 0.00017241379
Time = 0.01017241379

PIMPLE: iteration 1
MULES: Solving for alpha.water
Liquid phase volume fraction = 0.4838614  Min(alpha.water) = -4.1241806e-15  Min(alpha.air) = -1.0658607e-10
diagonal:  Solving for rho, Initial residual = 0, Final residual = 0, No Iterations 0
smoothSolver:  Solving for T, Initial residual = 0.00017341098, Final residual = 2.3305992e-09, No Iterations 2
min(T) 279.89453
GAMG:  Solving for p_rgh, Initial residual = 0.0049240506, Final residual = 6.6915579e-06, No Iterations 2
max(U) 16.150619
min(p_rgh) 108553.27
GAMGPCG:  Solving for p_rgh, Initial residual = 7.75446e-05, Final residual = 2.347591e-08, No Iterations 3
max(U) 16.126997
min(p_rgh) 108565.5
ExecutionTime = 3.97 s


Courant Number mean: 0.074026714 max: 0.24892273
deltaT = 0.00017241379
Time = 0.01034482759

PIMPLE: iteration 1
MULES: Solving for alpha.water
Liquid phase volume fraction = 0.48387102  Min(alpha.water) = -3.7417179e-15  Min(alpha.air) = -1.0241319e-10
diagonal:  Solving for rho, Initial residual = 0, Final residual = 0, No Iterations 0
smoothSolver:  Solving for T, Initial residual = 0.0001703057, Final residual = 2.2088684e-09, No Iterations 2
min(T) 278.546
GAMG:  Solving for p_rgh, Initial residual = 0.0051806222, Final residual = 6.5467303e-06, No Iterations 2
max(U) 15.950827
min(p_rgh) 108739.03
GAMGPCG:  Solving for p_rgh, Initial residual = 8.0760101e-05, Final residual = 2.3716769e-08, No Iterations 3
max(U) 15.926602
min(p_rgh) 108767.11
ExecutionTime = 4.03 s


Courant Number mean: 0.07412838 max: 0.24807352
deltaT = 0.00017241379
Time = 0.01051724138

PIMPLE: iteration 1
MULES: Solving for alpha.water
Liquid phase volume fraction = 0.48388038  Min(alpha.water) = -3.3823482e-15  Min(alpha.air) = -9.0497165e-11
diagonal:  Solving for rho, Initial residual = 0, Final residual = 0, No Iterations 0
smoothSolver:  Solving for T, Initial residual = 0.00016730248, Final residual = 2.2742199e-09, No Iterations 2
min(T) 277.22065
GAMG:  Solving for p_rgh, Initial residual = 0.0054143123, Final residual = 4.9136477e-05, No Iterations 1
max(U) 15.930913
min(p_rgh) 108973.63
GAMGPCG:  Solving for p_rgh, Initial residual = 0.00011865461, Final residual = 2.5104731e-08, No Iterations 3
max(U) 15.962912
min(p_rgh) 108968.94
ExecutionTime = 4.09 s


Courant Number mean: 0.07412784 max: 0.24770075
deltaT = 0.00017241379
Time = 0.01068965517

PIMPLE: iteration 1
MULES: Solving for alpha.water
Liquid phase volume fraction = 0.4838892  Min(alpha.water) = -3.0473971e-15  Min(alpha.air) = -7.9917406e-11
diagonal:  Solving for rho, Initial residual = 0, Final residual = 0, No Iterations 0
smoothSolver:  Solving for T, Initial residual = 0.00016428469, Final residual = 2.4599214e-09, No Iterations 2
min(T) 275.91508
GAMG:  Solving for p_rgh, Initial residual = 0.0056874297, Final residual = 4.8449005e-05, No Iterations 1
max(U) 15.930956
min(p_rgh) 109193.81
GAMGPCG:  Solving for p_rgh, Initial residual = 0.0001169632, Final residual = 2.6785793e-08, No Iterations 3
max(U) 15.997019
min(p_rgh) 109188.4
ExecutionTime = 4.15 s


Courant Number mean: 0.074046055 max: 0.2478859
deltaT = 0.00017241379
Time = 0.01086206897

PIMPLE: iteration 1
MULES: Solving for alpha.water
Liquid phase volume fraction = 0.48389775  Min(alpha.water) = -2.7391115e-15  Min(alpha.air) = -7.0530248e-11
diagonal:  Solving for rho, Initial residual = 0, Final residual = 0, No Iterations 0
smoothSolver:  Solving for T, Initial residual = 0.00016119309, Final residual = 2.1107313e-09, No Iterations 2
min(T) 274.65823
GAMG:  Solving for p_rgh, Initial residual = 0.0062078653, Final residual = 4.8794138e-05, No Iterations 1
max(U) 15.726953
min(p_rgh) 109410.46
GAMGPCG:  Solving for p_rgh, Initial residual = 0.00012159344, Final residual = 2.9467204e-08, No Iterations 3
max(U) 15.857554
min(p_rgh) 109401.96
ExecutionTime = 4.22 s


Courant Number mean: 0.073912975 max: 0.24819397
deltaT = 0.00017241379
Time = 0.01103448276

PIMPLE: iteration 1
MULES: Solving for alpha.water
Liquid phase volume fraction = 0.48390721  Min(alpha.water) = -2.4553667e-15  Min(alpha.air) = -1.1778911e-10
diagonal:  Solving for rho, Initial residual = 0, Final residual = 0, No Iterations 0
smoothSolver:  Solving for T, Initial residual = 0.00015937151, Final residual = 2.2446971e-09, No Iterations 2
min(T) 273.42832
GAMG:  Solving for p_rgh, Initial residual = 0.0063465885, Final residual = 3.7281451e-05, No Iterations 1
max(U) 15.599174
min(p_rgh) 109593.98
GAMGPCG:  Solving for p_rgh, Initial residual = 0.00011624423, Final residual = 3.0579093e-08, No Iterations 3
max(U) 15.609066
min(p_rgh) 109578.6
ExecutionTime = 4.29 s


Courant Number mean: 0.073732566 max: 0.24774348
deltaT = 0.00017241379
Time = 0.01120689655

PIMPLE: iteration 1
MULES: Solving for alpha.water
Liquid phase volume fraction = 0.48391626  Min(alpha.water) = -2.1977838e-15  Min(alpha.air) = -3.0808978e-10
diagonal:  Solving for rho, Initial residual = 0, Final residual = 0, No Iterations 0
smoothSolver:  Solving for T, Initial residual = 0.00016049186, Final residual = 2.3606524e-09, No Iterations 2
min(T) 272.17841
GAMG:  Solving for p_rgh, Initial residual = 0.0061027112, Final residual = 3.5062773e-05, No Iterations 1
max(U) 15.713054
min(p_rgh) 109808.23
GAMGPCG:  Solving for p_rgh, Initial residual = 0.00011748932, Final residual = 3.6377821e-08, No Iterations 3
max(U) 15.729696
min(p_rgh) 109806.64
ExecutionTime = 4.35 s


Courant Number mean: 0.073518934 max: 0.24700776
deltaT = 0.00017241379
Time = 0.01137931034

PIMPLE: iteration 1
MULES: Solving for alpha.water
Liquid phase volume fraction = 0.48392484  Min(alpha.water) = -2.0102034e-15  Min(alpha.air) = -2.8450797e-10
diagonal:  Solving for rho, Initial residual = 0, Final residual = 0, No Iterations 0
smoothSolver:  Solving for T, Initial residual = 0.00015530466, Final residual = 2.4325767e-09, No Iterations 2
min(T) 270.92434
GAMG:  Solving for p_rgh, Initial residual = 0.0063434768, Final residual = 3.8506492e-05, No Iterations 1
max(U) 15.833084
min(p_rgh) 110110.1
GAMGPCG:  Solving for p_rgh, Initial residual = 0.0001200428, Final residual = 4.476835e-08, No Iterations 3
max(U) 15.860174
min(p_rgh) 110116.53
ExecutionTime = 4.41 s


Courant Number mean: 0.073316378 max: 0.24685415
deltaT = 0.00017241379
Time = 0.01155172414

PIMPLE: iteration 1
MULES: Solving for alpha.water
Liquid phase volume fraction = 0.4839332  Min(alpha.water) = -1.9028994e-15  Min(alpha.air) = -2.7024583e-10
diagonal:  Solving for rho, Initial residual = 0, Final residual = 0, No Iterations 0
smoothSolver:  Solving for T, Initial residual = 0.00015163368, Final residual = 2.1397481e-09, No Iterations 2
min(T) 269.66628
GAMG:  Solving for p_rgh, Initial residual = 0.0068549752, Final residual = 4.199003e-05, No Iterations 1
max(U) 15.607144
min(p_rgh) 110373.96
GAMGPCG:  Solving for p_rgh, Initial residual = 0.00012412249, Final residual = 4.2515291e-08, No Iterations 3
max(U) 15.647285
min(p_rgh) 110391.99
ExecutionTime = 4.47 s


Courant Number mean: 0.073146739 max: 0.24670968
deltaT = 0.00017241379
Time = 0.01172413793

PIMPLE: iteration 1
MULES: Solving for alpha.water
Liquid phase volume fraction = 0.4839423  Min(alpha.water) = -1.7919728e-15  Min(alpha.air) = -2.3899149e-10
diagonal:  Solving for rho, Initial residual = 0, Final residual = 0, No Iterations 0
smoothSolver:  Solving for T, Initial residual = 0.00014823636, Final residual = 2.0212099e-09, No Iterations 2
min(T) 268.42582
GAMG:  Solving for p_rgh, Initial residual = 0.0073885049, Final residual = 4.4126675e-05, No Iterations 1
max(U) 15.442607
min(p_rgh) 110643.28
GAMGPCG:  Solving for p_rgh, Initial residual = 0.00013176627, Final residual = 4.1983617e-08, No Iterations 3
max(U) 15.458993
min(p_rgh) 110660.15
ExecutionTime = 4.53 s


Courant Number mean: 0.072995462 max: 0.24690134
deltaT = 0.00017241379
Time = 0.01189655172

PIMPLE: iteration 1
MULES: Solving for alpha.water
Liquid phase volume fraction = 0.48395162  Min(alpha.water) = -1.6790343e-15  Min(alpha.air) = -2.1121127e-10
diagonal:  Solving for rho, Initial residual = 0, Final residual = 0, No Iterations 0
smoothSolver:  Solving for T, Initial residual = 0.00014547377, Final residual = 2.0798183e-09, No Iterations 2
min(T) 267.04271
GAMG:  Solving for p_rgh, Initial residual = 0.007852902, Final residual = 4.6396144e-05, No Iterations 1
max(U) 15.516922
min(p_rgh) 110930.4
GAMGPCG:  Solving for p_rgh, Initial residual = 0.00013855663, Final residual = 4.2102507e-08, No Iterations 3
max(U) 15.529761
min(p_rgh) 110947.83
ExecutionTime = 4.59 s


Courant Number mean: 0.072873536 max: 0.24532524
deltaT = 0.00017241379
Time = 0.01206896552

PIMPLE: iteration 1
MULES: Solving for alpha.water
Liquid phase volume fraction = 0.48396032  Min(alpha.water) = -1.5662893e-15  Min(alpha.air) = -1.8653679e-10
diagonal:  Solving for rho, Initial residual = 0, Final residual = 0, No Iterations 0
smoothSolver:  Solving for T, Initial residual = 0.00014296411, Final residual = 2.1519452e-09, No Iterations 2
min(T) 265.52585
GAMG:  Solving for p_rgh, Initial residual = 0.0083226785, Final residual = 5.1704152e-05, No Iterations 1
max(U) 15.603541
min(p_rgh) 111242.39
GAMGPCG:  Solving for p_rgh, Initial residual = 0.00014840538, Final residual = 4.08515e-08, No Iterations 3
max(U) 15.621631
min(p_rgh) 111260.24
ExecutionTime = 4.66 s


Courant Number mean: 0.072801736 max: 0.24527108
deltaT = 0.00017241379
Time = 0.01224137931

PIMPLE: iteration 1
MULES: Solving for alpha.water
Liquid phase volume fraction = 0.48396841  Min(alpha.water) = -1.1768793e-13  Min(alpha.air) = -1.6463897e-10
diagonal:  Solving for rho, Initial residual = 0, Final residual = 0, No Iterations 0
smoothSolver:  Solving for T, Initial residual = 0.00014095153, Final residual = 1.9321088e-09, No Iterations 2
min(T) 264.03975
GAMG:  Solving for p_rgh, Initial residual = 0.0091515801, Final residual = 6.1619081e-05, No Iterations 1
max(U) 15.671738
min(p_rgh) 111561.65
GAMGPCG:  Solving for p_rgh, Initial residual = 0.00016887129, Final residual = 4.5875409e-08, No Iterations 3
max(U) 15.697606
min(p_rgh) 111578.43
ExecutionTime = 4.72 s


Courant Number mean: 0.07280449 max: 0.24564349
deltaT = 0.00017241379
Time = 0.0124137931

PIMPLE: iteration 1
MULES: Solving for alpha.water
Liquid phase volume fraction = 0.48397667  Min(alpha.water) = -1.0237975e-13  Min(alpha.air) = -3.9006776e-10
diagonal:  Solving for rho, Initial residual = 0, Final residual = 0, No Iterations 0
smoothSolver:  Solving for T, Initial residual = 0.00014154098, Final residual = 1.8652147e-09, No Iterations 2
min(T) 262.56356
GAMG:  Solving for p_rgh, Initial residual = 0.0091949824, Final residual = 6.7474749e-05, No Iterations 1
max(U) 15.442375
min(p_rgh) 111860.49
GAMGPCG:  Solving for p_rgh, Initial residual = 0.00018475583, Final residual = 5.072827e-08, No Iterations 3
max(U) 15.500297
min(p_rgh) 111852.87
ExecutionTime = 4.78 s


Courant Number mean: 0.072864455 max: 0.24526992
deltaT = 0.00017241379
Time = 0.0125862069

PIMPLE: iteration 1
MULES: Solving for alpha.water
Liquid phase volume fraction = 0.48398507  Min(alpha.water) = -1.2428982e-15  Min(alpha.air) = -3.3699465e-10
diagonal:  Solving for rho, Initial residual = 0, Final residual = 0, No Iterations 0
smoothSolver:  Solving for T, Initial residual = 0.0001432194, Final residual = 1.9592966e-09, No Iterations 2
min(T) 261.1472
GAMG:  Solving for p_rgh, Initial residual = 0.0089433513, Final residual = 7.3517832e-05, No Iterations 1
max(U) 15.340497
min(p_rgh) 112064.16
GAMGPCG:  Solving for p_rgh, Initial residual = 0.00019471988, Final residual = 4.9628668e-08, No Iterations 3
max(U) 15.344963
min(p_rgh) 112109.23
ExecutionTime = 4.84 s


Courant Number mean: 0.07298523 max: 0.24299568
deltaT = 0.00017241379
Time = 0.01275862069

PIMPLE: iteration 1
MULES: Solving for alpha.water
Liquid phase volume fraction = 0.48399341  Min(alpha.water) = -1.1420188e-15  Min(alpha.air) = -2.9097635e-10
diagonal:  Solving for rho, Initial residual = 0, Final residual = 0, No Iterations 0
smoothSolver:  Solving for T, Initial residual = 0.00013972118, Final residual = 1.9575094e-09, No Iterations 2
min(T) 259.75306
GAMG:  Solving for p_rgh, Initial residual = 0.009283925, Final residual = 7.5773866e-05, No Iterations 1
max(U) 15.40176
min(p_rgh) 112418.44
GAMGPCG:  Solving for p_rgh, Initial residual = 0.00019863644, Final residual = 4.9420135e-08, No Iterations 3
max(U) 15.411333
min(p_rgh) 112418.18
ExecutionTime = 4.9 s


Courant Number mean: 0.07321595 max: 0.24315674
deltaT = 0.00017241379
Time = 0.01293103448

PIMPLE: iteration 1
MULES: Solving for alpha.water
Liquid phase volume fraction = 0.48400116  Min(alpha.water) = -1.83344e-08  Min(alpha.air) = -2.510987e-10
diagonal:  Solving for rho, Initial residual = 0, Final residual = 0, No Iterations 0
smoothSolver:  Solving for T, Initial residual = 0.00013693853, Final residual = 2.2974076e-09, No Iterations 2
min(T) 258.38186
GAMG:  Solving for p_rgh, Initial residual = 0.0097468045, Final residual = 7.5255608e-05, No Iterations 1
max(U) 15.462473
min(p_rgh) 112651.03
GAMGPCG:  Solving for p_rgh, Initial residual = 0.00019710182, Final residual = 4.327492e-08, No Iterations 3
max(U) 15.476379
min(p_rgh) 112650.26
ExecutionTime = 4.96 s


Courant Number mean: 0.07352063 max: 0.24376105
deltaT = 0.00017241379
Time = 0.01310344828

PIMPLE: iteration 1
MULES: Solving for alpha.water
Liquid phase volume fraction = 0.48400856  Min(alpha.water) = -1.5214807e-08  Min(alpha.air) = -2.1656454e-10
diagonal:  Solving for rho, Initial residual = 0, Final residual = 0, No Iterations 0
smoothSolver:  Solving for T, Initial residual = 0.00013394202, Final residual = 1.9046603e-09, No Iterations 2
min(T) 257.03059
GAMG:  Solving for p_rgh, Initial residual = 0.010847359, Final residual = 8.0104686e-05, No Iterations 1
max(U) 15.484157
min(p_rgh) 112888.1
GAMGPCG:  Solving for p_rgh, Initial residual = 0.00020409207, Final residual = 3.5401042e-08, No Iterations 3
max(U) 15.502272
min(p_rgh) 112887.41
ExecutionTime = 5.02 s


Courant Number mean: 0.073912016 max: 0.2428642
deltaT = 0.00017241379
Time = 0.01327586207

PIMPLE: iteration 1
MULES: Solving for alpha.water
Liquid phase volume fraction = 0.48401655  Min(alpha.water) = -1.275063e-08  Min(alpha.air) = -1.8667934e-10
diagonal:  Solving for rho, Initial residual = 0, Final residual = 0, No Iterations 0
smoothSolver:  Solving for T, Initial residual = 0.00013145704, Final residual = 1.8678746e-09, No Iterations 2
min(T) 255.70279
GAMG:  Solving for p_rgh, Initial residual = 0.011708765, Final residual = 7.8937703e-05, No Iterations 1
max(U) 15.161046
min(p_rgh) 113132.76
GAMGPCG:  Solving for p_rgh, Initial residual = 0.00021316622, Final residual = 4.4938984e-08, No Iterations 3
max(U) 15.169815
min(p_rgh) 113132.33
ExecutionTime = 5.08 s


Courant Number mean: 0.074359367 max: 0.24171016
deltaT = 0.00017241379
Time = 0.01344827586

PIMPLE: iteration 1
MULES: Solving for alpha.water
Liquid phase volume fraction = 0.48402469  Min(alpha.water) = -1.0683566e-08  Min(alpha.air) = -1.840379e-10
diagonal:  Solving for rho, Initial residual = 0, Final residual = 0, No Iterations 0
smoothSolver:  Solving for T, Initial residual = 0.00012965702, Final residual = 1.7372017e-09, No Iterations 2
min(T) 254.38586
GAMG:  Solving for p_rgh, Initial residual = 0.012803841, Final residual = 7.7062138e-05, No Iterations 1
max(U) 15.205635
min(p_rgh) 113386.67
GAMGPCG:  Solving for p_rgh, Initial residual = 0.00022851353, Final residual = 5.9106207e-08, No Iterations 3
max(U) 15.212014
min(p_rgh) 113386.59
ExecutionTime = 5.14 s


Courant Number mean: 0.074831509 max: 0.24072206
deltaT = 0.00017241379
Time = 0.01362068966

PIMPLE: iteration 1
MULES: Solving for alpha.water
Liquid phase volume fraction = 0.48403243  Min(alpha.water) = -8.9351095e-09  Min(alpha.air) = -1.6233281e-10
diagonal:  Solving for rho, Initial residual = 0, Final residual = 0, No Iterations 0
smoothSolver:  Solving for T, Initial residual = 0.00012991953, Final residual = 2.0721678e-09, No Iterations 2
min(T) 253.08833
GAMG:  Solving for p_rgh, Initial residual = 0.013086712, Final residual = 8.2469241e-05, No Iterations 1
max(U) 15.249469
min(p_rgh) 113649.27
GAMGPCG:  Solving for p_rgh, Initial residual = 0.00024481505, Final residual = 7.0573181e-08, No Iterations 3
max(U) 15.260322
min(p_rgh) 113648.96
ExecutionTime = 5.2 s


Courant Number mean: 0.075281957 max: 0.24124865
deltaT = 0.00017241379
Time = 0.01379310345

PIMPLE: iteration 1
MULES: Solving for alpha.water
Liquid phase volume fraction = 0.4840398  Min(alpha.water) = -7.5084803e-09  Min(alpha.air) = -1.4314372e-10
diagonal:  Solving for rho, Initial residual = 0, Final residual = 0, No Iterations 0
smoothSolver:  Solving for T, Initial residual = 0.00013100195, Final residual = 1.6667917e-09, No Iterations 2
min(T) 251.7849
GAMG:  Solving for p_rgh, Initial residual = 0.013814374, Final residual = 9.866795e-05, No Iterations 1
max(U) 15.285664
min(p_rgh) 113921.34
GAMGPCG:  Solving for p_rgh, Initial residual = 0.00027416381, Final residual = 7.6408751e-08, No Iterations 3
max(U) 15.299846
min(p_rgh) 113921.7
ExecutionTime = 5.26 s


Courant Number mean: 0.075729947 max: 0.2409458
deltaT = 0.00017241379
Time = 0.01396551724

PIMPLE: iteration 1
MULES: Solving for alpha.water
Liquid phase volume fraction = 0.48404771  Min(alpha.water) = -6.3247969e-09  Min(alpha.air) = -2.8846192e-10
diagonal:  Solving for rho, Initial residual = 0, Final residual = 0, No Iterations 0
smoothSolver:  Solving for T, Initial residual = 0.00012977748, Final residual = 1.649579e-09, No Iterations 2
min(T) 250.54465
GAMG:  Solving for p_rgh, Initial residual = 0.014140808, Final residual = 8.933929e-05, No Iterations 1
max(U) 15.263241
min(p_rgh) 114205.89
GAMGPCG:  Solving for p_rgh, Initial residual = 0.00027842689, Final residual = 7.9295164e-08, No Iterations 3
max(U) 15.276695
min(p_rgh) 114206.84
ExecutionTime = 5.33 s


Courant Number mean: 0.076170431 max: 0.23965291
deltaT = 0.00017241379
Time = 0.01413793103

PIMPLE: iteration 1
MULES: Solving for alpha.water
Liquid phase volume fraction = 0.48405554  Min(alpha.water) = -5.3391281e-09  Min(alpha.air) = -2.4906432e-10
diagonal:  Solving for rho, Initial residual = 0, Final residual = 0, No Iterations 0
smoothSolver:  Solving for T, Initial residual = 0.00012972972, Final residual = 1.6606419e-09, No Iterations 2
min(T) 249.30282
GAMG:  Solving for p_rgh, Initial residual = 0.014552261, Final residual = 9.2072072e-05, No Iterations 1
max(U) 15.012725
min(p_rgh) 114502.14
GAMGPCG:  Solving for p_rgh, Initial residual = 0.00028431209, Final residual = 6.9331903e-08, No Iterations 3
max(U) 15.014361
min(p_rgh) 114503.73
ExecutionTime = 5.39 s


Courant Number mean: 0.076605836 max: 0.23827074
deltaT = 0.00017241379
Time = 0.01431034483

PIMPLE: iteration 1
MULES: Solving for alpha.water
Liquid phase volume fraction = 0.48406342  Min(alpha.water) = -4.5227007e-09  Min(alpha.air) = -2.1497182e-10
diagonal:  Solving for rho, Initial residual = 0, Final residual = 0, No Iterations 0
smoothSolver:  Solving for T, Initial residual = 0.00012525901, Final residual = 1.9699428e-09, No Iterations 2
min(T) 248.10336
GAMG:  Solving for p_rgh, Initial residual = 0.015641844, Final residual = 9.3217121e-05, No Iterations 1
max(U) 15.044857
min(p_rgh) 114808.55
GAMGPCG:  Solving for p_rgh, Initial residual = 0.00029339629, Final residual = 7.0762235e-08, No Iterations 3
max(U) 15.049362
min(p_rgh) 114810.38
ExecutionTime = 5.45 s


Courant Number mean: 0.077012539 max: 0.23844573
deltaT = 0.00017241379
Time = 0.01448275862

PIMPLE: iteration 1
MULES: Solving for alpha.water
Liquid phase volume fraction = 0.48407088  Min(alpha.water) = -3.8437276e-09  Min(alpha.air) = -1.854823e-10
diagonal:  Solving for rho, Initial residual = 0, Final residual = 0, No Iterations 0
smoothSolver:  Solving for T, Initial residual = 0.00012248069, Final residual = 1.6292019e-09, No Iterations 2
min(T) 246.93304
GAMG:  Solving for p_rgh, Initial residual = 0.01761757, Final residual = 0.00012395678, No Iterations 1
max(U) 15.074498
min(p_rgh) 115121.41
GAMGPCG:  Solving for p_rgh, Initial residual = 0.00032906824, Final residual = 7.0005119e-08, No Iterations 3
max(U) 15.082541
min(p_rgh) 115123.37
ExecutionTime = 5.51 s


Courant Number mean: 0.077399672 max: 0.2385033
deltaT = 0.00017241379
Time = 0.01465517241

PIMPLE: iteration 1
MULES: Solving for alpha.water
Liquid phase volume fraction = 0.48407905  Min(alpha.water) = -3.2738311e-09  Min(alpha.air) = -2.6864933e-10
diagonal:  Solving for rho, Initial residual = 0, Final residual = 0, No Iterations 0
smoothSolver:  Solving for T, Initial residual = 0.00012157753, Final residual = 1.744734e-09, No Iterations 2
min(T) 245.78434
GAMG:  Solving for p_rgh, Initial residual = 0.019316834, Final residual = 0.00013662733, No Iterations 1
max(U) 15.092997
min(p_rgh) 115442.04
GAMGPCG:  Solving for p_rgh, Initial residual = 0.0003701662, Final residual = 7.3106228e-08, No Iterations 3
max(U) 15.102908
min(p_rgh) 115444.25
ExecutionTime = 5.57 s


Courant Number mean: 0.07771016 max: 0.23674619
deltaT = 0.00017241379
Time = 0.01482758621

PIMPLE: iteration 1
MULES: Solving for alpha.water
Liquid phase volume fraction = 0.48408607  Min(alpha.water) = -2.7944124e-09  Min(alpha.air) = -3.4707948e-10
diagonal:  Solving for rho, Initial residual = 0, Final residual = 0, No Iterations 0
smoothSolver:  Solving for T, Initial residual = 0.00012105811, Final residual = 1.6351431e-09, No Iterations 2
min(T) 244.64842
GAMG:  Solving for p_rgh, Initial residual = 0.020275092, Final residual = 0.00016174448, No Iterations 1
max(U) 15.046138
min(p_rgh) 115769.99
GAMGPCG:  Solving for p_rgh, Initial residual = 0.00040589478, Final residual = 8.5475204e-08, No Iterations 3
max(U) 15.053225
min(p_rgh) 115772.48
ExecutionTime = 5.63 s


Courant Number mean: 0.077942435 max: 0.23540221
deltaT = 0.00017241379
Time = 0.015

PIMPLE: iteration 1
MULES: Solving for alpha.water
Liquid phase volume fraction = 0.48409334  Min(alpha.water) = -2.3818384e-09  Min(alpha.air) = -3.0101543e-10
diagonal:  Solving for rho, Initial residual = 0, Final residual = 0, No Iterations 0
smoothSolver:  Solving for T, Initial residual = 0.00012268006, Final residual = 1.5276486e-09, No Iterations 2
min(T) 243.52629
GAMG:  Solving for p_rgh, Initial residual = 0.021570089, Final residual = 0.00017422347, No Iterations 1
max(U) 14.840306
min(p_rgh) 116104.04
GAMGPCG:  Solving for p_rgh, Initial residual = 0.00044151019, Final residual = 9.1592791e-08, No Iterations 3
max(U) 14.8421
min(p_rgh) 116106.91
ExecutionTime = 5.9 s


Courant Number mean: 0.078099959 max: 0.23575799
deltaT = 0.00017857143
Time = 0.01517857143

PIMPLE: iteration 1
MULES: Solving for alpha.water
Liquid phase volume fraction = 0.48410121  Min(alpha.water) = -2.0156726e-09  Min(alpha.air) = -2.5982683e-10
diagonal:  Solving for rho, Initial residual = 0, Final residual = 0, No Iterations 0
smoothSolver:  Solving for T, Initial residual = 0.0001254007, Final residual = 2.000458e-09, No Iterations 2
min(T) 242.37913
GAMG:  Solving for p_rgh, Initial residual = 0.023751307, Final residual = 0.00018933605, No Iterations 1
max(U) 14.860983
min(p_rgh) 116434.49
GAMGPCG:  Solving for p_rgh, Initial residual = 0.00050454699, Final residual = 9.8553343e-09, No Iterations 4
max(U) 14.867565
min(p_rgh) 116432.84
ExecutionTime = 5.97 s


Courant Number mean: 0.080935353 max: 0.24377698
deltaT = 0.00017857143
Time = 0.01535714286

PIMPLE: iteration 1
MULES: Solving for alpha.water
Liquid phase volume fraction = 0.48410893  Min(alpha.water) = -1.7070859e-09  Min(alpha.air) = -2.2446134e-10
diagonal:  Solving for rho, Initial residual = 0, Final residual = 0, No Iterations 0
smoothSolver:  Solving for T, Initial residual = 0.00012466295, Final residual = 1.6995086e-09, No Iterations 2
min(T) 241.24876
GAMG:  Solving for p_rgh, Initial residual = 0.02609949, Final residual = 0.00023061175, No Iterations 1
max(U) 14.879689
min(p_rgh) 116691.08
GAMGPCG:  Solving for p_rgh, Initial residual = 0.00057097143, Final residual = 1.1322217e-08, No Iterations 4
max(U) 14.889019
min(p_rgh) 116714.11
ExecutionTime = 6.04 s


Courant Number mean: 0.080909802 max: 0.24265517
deltaT = 0.00017857143
Time = 0.01553571429

PIMPLE: iteration 1
MULES: Solving for alpha.water
Liquid phase volume fraction = 0.48411693  Min(alpha.water) = -1.5069528e-09  Min(alpha.air) = -1.9408408e-10
diagonal:  Solving for rho, Initial residual = 0, Final residual = 0, No Iterations 0
smoothSolver:  Solving for T, Initial residual = 0.00012551838, Final residual = 1.6285682e-09, No Iterations 2
min(T) 240.13499
GAMG:  Solving for p_rgh, Initial residual = 0.027311524, Final residual = 0.0002326992, No Iterations 1
max(U) 14.881159
min(p_rgh) 116803.5
GAMGPCG:  Solving for p_rgh, Initial residual = 0.00058773115, Final residual = 1.1093771e-08, No Iterations 4
max(U) 14.891333
min(p_rgh) 116884.39
ExecutionTime = 6.11 s


Courant Number mean: 0.080805959 max: 0.2405375
deltaT = 0.00017857143
Time = 0.01571428571

PIMPLE: iteration 1
MULES: Solving for alpha.water
Liquid phase volume fraction = 0.48412425  Min(alpha.water) = -1.3751228e-09  Min(alpha.air) = -1.6798096e-10
diagonal:  Solving for rho, Initial residual = 0, Final residual = 0, No Iterations 0
smoothSolver:  Solving for T, Initial residual = 0.0001207172, Final residual = 1.5473519e-09, No Iterations 2
min(T) 239.03762
GAMG:  Solving for p_rgh, Initial residual = 0.0297975, Final residual = 0.00025113152, No Iterations 1
max(U) 14.804833
min(p_rgh) 117257.37
GAMGPCG:  Solving for p_rgh, Initial residual = 0.00060727804, Final residual = 7.8296863e-09, No Iterations 4
max(U) 14.806089
min(p_rgh) 117261.9
ExecutionTime = 6.18 s


Courant Number mean: 0.080644617 max: 0.24095192
deltaT = 0.00017857143
Time = 0.01589285714

PIMPLE: iteration 1
MULES: Solving for alpha.water
Liquid phase volume fraction = 0.48413156  Min(alpha.water) = -7.4991471e-10  Min(alpha.air) = -2.2679281e-10
diagonal:  Solving for rho, Initial residual = 0, Final residual = 0, No Iterations 0
smoothSolver:  Solving for T, Initial residual = 0.00011801223, Final residual = 1.8719441e-09, No Iterations 2
min(T) 237.95511
GAMG:  Solving for p_rgh, Initial residual = 0.032526817, Final residual = 0.00024444273, No Iterations 1
max(U) 14.653464
min(p_rgh) 117572.15
GAMGPCG:  Solving for p_rgh, Initial residual = 0.00063818332, Final residual = 1.0095939e-08, No Iterations 4
max(U) 14.652601
min(p_rgh) 117574.88
ExecutionTime = 6.26 s


Courant Number mean: 0.080406801 max: 0.24066297
deltaT = 0.00017857143
Time = 0.01607142857

PIMPLE: iteration 1
MULES: Solving for alpha.water
Liquid phase volume fraction = 0.48413861  Min(alpha.water) = -6.2713651e-10  Min(alpha.air) = -2.0838686e-10
diagonal:  Solving for rho, Initial residual = 0, Final residual = 0, No Iterations 0
smoothSolver:  Solving for T, Initial residual = 0.00011905496, Final residual = 1.6299662e-09, No Iterations 2
min(T) 236.90682
GAMG:  Solving for p_rgh, Initial residual = 0.03580671, Final residual = 0.00029391622, No Iterations 1
max(U) 14.663415
min(p_rgh) 117813.93
GAMGPCG:  Solving for p_rgh, Initial residual = 0.00071748901, Final residual = 1.230697e-08, No Iterations 4
max(U) 14.667855
min(p_rgh) 117836.7
ExecutionTime = 6.33 s


Courant Number mean: 0.080097286 max: 0.23965203
deltaT = 0.00017857143
Time = 0.01625

PIMPLE: iteration 1
MULES: Solving for alpha.water
Liquid phase volume fraction = 0.48414674  Min(alpha.water) = -5.2653028e-10  Min(alpha.air) = -1.907341e-10
diagonal:  Solving for rho, Initial residual = 0, Final residual = 0, No Iterations 0
smoothSolver:  Solving for T, Initial residual = 0.00011927139, Final residual = 1.39399e-09, No Iterations 2
min(T) 235.87964
GAMG:  Solving for p_rgh, Initial residual = 0.038182211, Final residual = 0.00029020518, No Iterations 1
max(U) 14.669883
min(p_rgh) 118126.41
GAMGPCG:  Solving for p_rgh, Initial residual = 0.00077186762, Final residual = 1.3583437e-08, No Iterations 4
max(U) 14.67666
min(p_rgh) 118142.67
ExecutionTime = 6.4 s


Courant Number mean: 0.079773006 max: 0.23692337
deltaT = 0.0001875
Time = 0.0164375

PIMPLE: iteration 1
MULES: Solving for alpha.water
Liquid phase volume fraction = 0.48415491  Min(alpha.water) = -4.6662699e-10  Min(alpha.air) = -1.8697444e-10
diagonal:  Solving for rho, Initial residual = 0, Final residual = 0, No Iterations 0
smoothSolver:  Solving for T, Initial residual = 0.0001236718, Final residual = 1.8275331e-09, No Iterations 2
min(T) 234.81542
GAMG:  Solving for p_rgh, Initial residual = 0.043444509, Final residual = 0.00034360547, No Iterations 1
max(U) 14.652188
min(p_rgh) 118457.93
GAMGPCG:  Solving for p_rgh, Initial residual = 0.00091823026, Final residual = 1.9327901e-08, No Iterations 4
max(U) 14.659796
min(p_rgh) 118474.59
ExecutionTime = 6.48 s


Courant Number mean: 0.08338162 max: 0.24926939
deltaT = 0.0001875
Time = 0.016625

PIMPLE: iteration 1
MULES: Solving for alpha.water
Liquid phase volume fraction = 0.48416196  Min(alpha.water) = -4.1632585e-10  Min(alpha.air) = -1.6733837e-10
diagonal:  Solving for rho, Initial residual = 0, Final residual = 0, No Iterations 0
smoothSolver:  Solving for T, Initial residual = 0.00012268586, Final residual = 2.3129598e-09, No Iterations 2
min(T) 233.76268
GAMG:  Solving for p_rgh, Initial residual = 0.046702293, Final residual = 0.00040679755, No Iterations 1
max(U) 14.534672
min(p_rgh) 117874.51
GAMGPCG:  Solving for p_rgh, Initial residual = 0.0010252073, Final residual = 2.5375886e-08, No Iterations 4
max(U) 14.532082
min(p_rgh) 117899.29
ExecutionTime = 6.56 s


Courant Number mean: 0.082984194 max: 0.24916355
deltaT = 0.0001875
Time = 0.0168125

PIMPLE: iteration 1
MULES: Solving for alpha.water
Liquid phase volume fraction = 0.48416881  Min(alpha.water) = -3.7170359e-10  Min(alpha.air) = -1.4943025e-10
diagonal:  Solving for rho, Initial residual = 0, Final residual = 0, No Iterations 0
smoothSolver:  Solving for T, Initial residual = 0.00012049003, Final residual = 1.7154745e-09, No Iterations 2
min(T) 232.7202
GAMG:  Solving for p_rgh, Initial residual = 0.052498988, Final residual = 0.00043846035, No Iterations 1
max(U) 14.444113
min(p_rgh) 115940.76
[...]
GAMG:  Solving for p_rgh, Initial residual = 0.0020584412, Final residual = 1.5066438e-05, No Iterations 1
max(U) 33.424529
min(p_rgh) 95582.817
GAMGPCG:  Solving for p_rgh, Initial residual = 3.175006e-05, Final residual = 1.0677163e-08, No Iterations 2
max(U) 33.307896
min(p_rgh) 95582.424
ExecutionTime = 204.3 s


Courant Number mean: 0.017975432 max: 0.24590602
deltaT = 8.7499837e-05
Time = 0.4977250042

PIMPLE: iteration 1
MULES: Solving for alpha.water
Liquid phase volume fraction = 0.4844227  Min(alpha.water) = 1.6036359e-20  Min(alpha.air) = -2.0894397e-13
diagonal:  Solving for rho, Initial residual = 0, Final residual = 0, No Iterations 0
smoothSolver:  Solving for T, Initial residual = 6.601773e-06, Final residual = 8.5329754e-10, No Iterations 1
min(T) 279.18064
GAMG:  Solving for p_rgh, Initial residual = 0.0020501931, Final residual = 1.5182048e-05, No Iterations 1
max(U) 32.883802
min(p_rgh) 95607.728
GAMGPCG:  Solving for p_rgh, Initial residual = 3.1256049e-05, Final residual = 1.0300521e-08, No Iterations 2
max(U) 32.744611
min(p_rgh) 95607.361
ExecutionTime = 204.36 s


Courant Number mean: 0.017965847 max: 0.24355498
deltaT = 8.7499837e-05
Time = 0.4978125041

PIMPLE: iteration 1
MULES: Solving for alpha.water
Liquid phase volume fraction = 0.48442263  Min(alpha.water) = 1.6085671e-20  Min(alpha.air) = -2.0872193e-13
diagonal:  Solving for rho, Initial residual = 0, Final residual = 0, No Iterations 0
smoothSolver:  Solving for T, Initial residual = 6.6237597e-06, Final residual = 8.3418023e-10, No Iterations 1
min(T) 279.19888
GAMG:  Solving for p_rgh, Initial residual = 0.0020529862, Final residual = 1.5077343e-05, No Iterations 1
max(U) 32.356166
min(p_rgh) 95630.874
GAMGPCG:  Solving for p_rgh, Initial residual = 3.0481614e-05, Final residual = 1.0460954e-08, No Iterations 2
max(U) 32.263179
min(p_rgh) 95630.521
ExecutionTime = 204.44 s


Courant Number mean: 0.01795721 max: 0.2408166
deltaT = 8.7499837e-05
Time = 0.4979000039

PIMPLE: iteration 1
MULES: Solving for alpha.water
Liquid phase volume fraction = 0.48442256  Min(alpha.water) = 1.6135927e-20  Min(alpha.air) = -2.0872193e-13
diagonal:  Solving for rho, Initial residual = 0, Final residual = 0, No Iterations 0
smoothSolver:  Solving for T, Initial residual = 6.6319631e-06, Final residual = 8.0891037e-10, No Iterations 1
min(T) 279.21511
GAMG:  Solving for p_rgh, Initial residual = 0.002051515, Final residual = 1.5010116e-05, No Iterations 1
max(U) 32.003626
min(p_rgh) 95653.288
GAMGPCG:  Solving for p_rgh, Initial residual = 2.9485153e-05, Final residual = 1.0932403e-08, No Iterations 2
max(U) 31.905351
min(p_rgh) 95653.065
ExecutionTime = 204.5 s


Courant Number mean: 0.017949227 max: 0.23903285
deltaT = 9.1304178e-05
Time = 0.4979913081

PIMPLE: iteration 1
MULES: Solving for alpha.water
Liquid phase volume fraction = 0.48442249  Min(alpha.water) = 1.6189355e-20  Min(alpha.air) = -2.0872193e-13
diagonal:  Solving for rho, Initial residual = 0, Final residual = 0, No Iterations 0
smoothSolver:  Solving for T, Initial residual = 6.9250968e-06, Final residual = 8.8432066e-10, No Iterations 1
min(T) 279.22864
GAMG:  Solving for p_rgh, Initial residual = 0.0021953201, Final residual = 1.7036209e-05, No Iterations 1
max(U) 31.633328
min(p_rgh) 95676.917
GAMGPCG:  Solving for p_rgh, Initial residual = 3.1624677e-05, Final residual = 1.1414716e-08, No Iterations 2
max(U) 31.529504
min(p_rgh) 95676.691
ExecutionTime = 204.57 s


Courant Number mean: 0.018720776 max: 0.24735968
deltaT = 9.1304178e-05
Time = 0.4980826123

PIMPLE: iteration 1
MULES: Solving for alpha.water
Liquid phase volume fraction = 0.48442242  Min(alpha.water) = 1.6243817e-20  Min(alpha.air) = -2.0849988e-13
diagonal:  Solving for rho, Initial residual = 0, Final residual = 0, No Iterations 0
smoothSolver:  Solving for T, Initial residual = 6.9193748e-06, Final residual = 8.6214018e-10, No Iterations 1
min(T) 279.23813
GAMG:  Solving for p_rgh, Initial residual = 0.0022311323, Final residual = 1.743507e-05, No Iterations 1
max(U) 31.259213
min(p_rgh) 95699.386
GAMGPCG:  Solving for p_rgh, Initial residual = 3.169334e-05, Final residual = 1.2290475e-08, No Iterations 2
max(U) 31.157904
min(p_rgh) 95699.142
ExecutionTime = 204.64 s


Courant Number mean: 0.018712483 max: 0.24529241
deltaT = 9.1304178e-05
Time = 0.4981739164

PIMPLE: iteration 1
MULES: Solving for alpha.water
Liquid phase volume fraction = 0.48442235  Min(alpha.water) = 1.6299333e-20  Min(alpha.air) = -2.0849988e-13
diagonal:  Solving for rho, Initial residual = 0, Final residual = 0, No Iterations 0
smoothSolver:  Solving for T, Initial residual = 6.9080745e-06, Final residual = 8.5061616e-10, No Iterations 1
min(T) 279.24438
GAMG:  Solving for p_rgh, Initial residual = 0.0022146746, Final residual = 1.7085497e-05, No Iterations 1
max(U) 30.87491
min(p_rgh) 95719.279
GAMGPCG:  Solving for p_rgh, Initial residual = 3.0961956e-05, Final residual = 1.2251751e-08, No Iterations 2
max(U) 30.777248
min(p_rgh) 95719.03
ExecutionTime = 204.7 s


Courant Number mean: 0.018704111 max: 0.24320615
deltaT = 9.1304178e-05
Time = 0.4982652206

PIMPLE: iteration 1
MULES: Solving for alpha.water
Liquid phase volume fraction = 0.48442227  Min(alpha.water) = 1.6355936e-20  Min(alpha.air) = -2.0827784e-13
diagonal:  Solving for rho, Initial residual = 0, Final residual = 0, No Iterations 0
smoothSolver:  Solving for T, Initial residual = 6.9039852e-06, Final residual = 8.2519819e-10, No Iterations 1
min(T) 279.24959
GAMG:  Solving for p_rgh, Initial residual = 0.0022066754, Final residual = 1.6756384e-05, No Iterations 1
max(U) 30.48165
min(p_rgh) 95735.576
GAMGPCG:  Solving for p_rgh, Initial residual = 3.0388611e-05, Final residual = 1.151823e-08, No Iterations 2
max(U) 30.385985
min(p_rgh) 95735.302
ExecutionTime = 204.77 s


Courant Number mean: 0.018695638 max: 0.24110157
deltaT = 9.1304178e-05
Time = 0.4983565248

PIMPLE: iteration 1
MULES: Solving for alpha.water
Liquid phase volume fraction = 0.48442219  Min(alpha.water) = 1.6413657e-20  Min(alpha.air) = -2.0827784e-13
diagonal:  Solving for rho, Initial residual = 0, Final residual = 0, No Iterations 0
smoothSolver:  Solving for T, Initial residual = 6.8936959e-06, Final residual = 8.1499066e-10, No Iterations 1
min(T) 279.25615
GAMG:  Solving for p_rgh, Initial residual = 0.002205249, Final residual = 1.6232106e-05, No Iterations 1
max(U) 30.074963
min(p_rgh) 95750.854
GAMGPCG:  Solving for p_rgh, Initial residual = 2.9928538e-05, Final residual = 1.0904488e-08, No Iterations 2
max(U) 29.980702
min(p_rgh) 95750.607
ExecutionTime = 204.83 s


Courant Number mean: 0.018686704 max: 0.23893573
deltaT = 9.1304178e-05
Time = 0.498447829

PIMPLE: iteration 1
MULES: Solving for alpha.water
Liquid phase volume fraction = 0.48442211  Min(alpha.water) = 1.6472507e-20  Min(alpha.air) = -2.0827784e-13
diagonal:  Solving for rho, Initial residual = 0, Final residual = 0, No Iterations 0
smoothSolver:  Solving for T, Initial residual = 6.8969167e-06, Final residual = 7.9314171e-10, No Iterations 1
min(T) 279.26422
GAMG:  Solving for p_rgh, Initial residual = 0.0022120225, Final residual = 1.5795513e-05, No Iterations 1
max(U) 29.651343
min(p_rgh) 95761.996
GAMGPCG:  Solving for p_rgh, Initial residual = 2.9842162e-05, Final residual = 1.037962e-08, No Iterations 2
max(U) 29.558144
min(p_rgh) 95761.958
ExecutionTime = 204.91 s


Courant Number mean: 0.018677183 max: 0.23667263
deltaT = 9.1304178e-05
Time = 0.4985391331

PIMPLE: iteration 1
MULES: Solving for alpha.water
Liquid phase volume fraction = 0.48442204  Min(alpha.water) = 1.6532474e-20  Min(alpha.air) = -2.0827784e-13
diagonal:  Solving for rho, Initial residual = 0, Final residual = 0, No Iterations 0
smoothSolver:  Solving for T, Initial residual = 6.8924705e-06, Final residual = 7.1519546e-10, No Iterations 1
min(T) 279.27455
GAMG:  Solving for p_rgh, Initial residual = 0.0022097861, Final residual = 1.5636447e-05, No Iterations 1
max(U) 29.208226
min(p_rgh) 95770.184
GAMGPCG:  Solving for p_rgh, Initial residual = 2.9338515e-05, Final residual = 1.0477189e-08, No Iterations 2
max(U) 29.116161
min(p_rgh) 95769.549
ExecutionTime = 204.97 s


Courant Number mean: 0.018668039 max: 0.23428189
deltaT = 9.7391123e-05
Time = 0.4986365243

PIMPLE: iteration 1
MULES: Solving for alpha.water
Liquid phase volume fraction = 0.48442195  Min(alpha.water) = 1.6551708e-20  Min(alpha.air) = -2.0827784e-13
diagonal:  Solving for rho, Initial residual = 0, Final residual = 0, No Iterations 0
smoothSolver:  Solving for T, Initial residual = 7.351612e-06, Final residual = 8.5084521e-10, No Iterations 1
min(T) 279.28857
GAMG:  Solving for p_rgh, Initial residual = 0.0024480353, Final residual = 1.8894809e-05, No Iterations 1
max(U) 28.72796
min(p_rgh) 95778.141
GAMGPCG:  Solving for p_rgh, Initial residual = 3.3833124e-05, Final residual = 1.5464045e-08, No Iterations 2
max(U) 28.627679
min(p_rgh) 95777.446
ExecutionTime = 205.04 s


Courant Number mean: 0.019902185 max: 0.24711411
deltaT = 9.7391123e-05
Time = 0.4987339154

PIMPLE: iteration 1
MULES: Solving for alpha.water
Liquid phase volume fraction = 0.48442187  Min(alpha.water) = 1.6554388e-20  Min(alpha.air) = -2.0827784e-13
diagonal:  Solving for rho, Initial residual = 0, Final residual = 0, No Iterations 0
smoothSolver:  Solving for T, Initial residual = 7.3416737e-06, Final residual = 8.2647258e-10, No Iterations 1
min(T) 279.30614
GAMG:  Solving for p_rgh, Initial residual = 0.0024869427, Final residual = 1.975439e-05, No Iterations 1
max(U) 28.460579
min(p_rgh) 95787.642
GAMGPCG:  Solving for p_rgh, Initial residual = 3.4475239e-05, Final residual = 1.6069097e-08, No Iterations 2
max(U) 28.400719
min(p_rgh) 95787.134
ExecutionTime = 205.11 s


Courant Number mean: 0.019893636 max: 0.24423842
deltaT = 9.7391123e-05
Time = 0.4988313065

PIMPLE: iteration 1
MULES: Solving for alpha.water
Liquid phase volume fraction = 0.48442179  Min(alpha.water) = 1.6557633e-20  Min(alpha.air) = -2.0849988e-13
diagonal:  Solving for rho, Initial residual = 0, Final residual = 0, No Iterations 0
smoothSolver:  Solving for T, Initial residual = 7.3374694e-06, Final residual = 8.3279971e-10, No Iterations 1
min(T) 279.32679
GAMG:  Solving for p_rgh, Initial residual = 0.0024824714, Final residual = 1.9413602e-05, No Iterations 1
max(U) 28.252468
min(p_rgh) 95797.436
GAMGPCG:  Solving for p_rgh, Initial residual = 3.3815614e-05, Final residual = 1.644414e-08, No Iterations 2
max(U) 28.193576
min(p_rgh) 95797.061
ExecutionTime = 205.18 s


Courant Number mean: 0.019885499 max: 0.24152269
deltaT = 9.7391123e-05
Time = 0.4989286976

PIMPLE: iteration 1
MULES: Solving for alpha.water
Liquid phase volume fraction = 0.48442171  Min(alpha.water) = 1.6561462e-20  Min(alpha.air) = -2.0849988e-13
diagonal:  Solving for rho, Initial residual = 0, Final residual = 0, No Iterations 0
smoothSolver:  Solving for T, Initial residual = 7.3409182e-06, Final residual = 8.2021653e-10, No Iterations 1
min(T) 279.35007
GAMG:  Solving for p_rgh, Initial residual = 0.002496957, Final residual = 1.9425532e-05, No Iterations 1
max(U) 28.050293
min(p_rgh) 95808.462
GAMGPCG:  Solving for p_rgh, Initial residual = 3.372033e-05, Final residual = 1.5600266e-08, No Iterations 2
max(U) 27.992405
min(p_rgh) 95808.295
ExecutionTime = 205.24 s


Courant Number mean: 0.019877735 max: 0.24057833
deltaT = 9.7391123e-05
Time = 0.4990260888

PIMPLE: iteration 1
MULES: Solving for alpha.water
Liquid phase volume fraction = 0.48442163  Min(alpha.water) = 1.6565899e-20  Min(alpha.air) = -2.0849988e-13
diagonal:  Solving for rho, Initial residual = 0, Final residual = 0, No Iterations 0
smoothSolver:  Solving for T, Initial residual = 7.3370499e-06, Final residual = 8.1504242e-10, No Iterations 1
min(T) 279.37674
GAMG:  Solving for p_rgh, Initial residual = 0.0024892539, Final residual = 1.9301589e-05, No Iterations 1
max(U) 27.840746
min(p_rgh) 95821.9
GAMGPCG:  Solving for p_rgh, Initial residual = 3.3188256e-05, Final residual = 1.4909764e-08, No Iterations 2
max(U) 27.784625
min(p_rgh) 95821.793
ExecutionTime = 205.32 s


Courant Number mean: 0.019870602 max: 0.23947175
deltaT = 9.7391123e-05
Time = 0.4991234799

PIMPLE: iteration 1
MULES: Solving for alpha.water
Liquid phase volume fraction = 0.48442155  Min(alpha.water) = 1.6570966e-20  Min(alpha.air) = -2.0849988e-13
diagonal:  Solving for rho, Initial residual = 0, Final residual = 0, No Iterations 0
smoothSolver:  Solving for T, Initial residual = 7.3312993e-06, Final residual = 8.0561962e-10, No Iterations 1
min(T) 279.40427
GAMG:  Solving for p_rgh, Initial residual = 0.0024883413, Final residual = 1.9048467e-05, No Iterations 1
max(U) 27.604377
min(p_rgh) 95838.56
GAMGPCG:  Solving for p_rgh, Initial residual = 3.2753438e-05, Final residual = 1.4912831e-08, No Iterations 2
max(U) 27.548939
min(p_rgh) 95838.449
ExecutionTime = 205.38 s


Courant Number mean: 0.019864448 max: 0.23817958
deltaT = 9.7391123e-05
Time = 0.499220871

PIMPLE: iteration 1
MULES: Solving for alpha.water
Liquid phase volume fraction = 0.48442148  Min(alpha.water) = 1.657668e-20  Min(alpha.air) = -2.0849988e-13
diagonal:  Solving for rho, Initial residual = 0, Final residual = 0, No Iterations 0
smoothSolver:  Solving for T, Initial residual = 7.33084e-06, Final residual = 7.3366251e-10, No Iterations 1
min(T) 279.43269
GAMG:  Solving for p_rgh, Initial residual = 0.002496423, Final residual = 1.9111415e-05, No Iterations 1
max(U) 27.35089
min(p_rgh) 95858.279
GAMGPCG:  Solving for p_rgh, Initial residual = 3.2935206e-05, Final residual = 1.4502988e-08, No Iterations 2
max(U) 27.292488
min(p_rgh) 95858.149
ExecutionTime = 205.45 s


Courant Number mean: 0.019859159 max: 0.23672373
deltaT = 9.7391123e-05
Time = 0.4993182621

PIMPLE: iteration 1
MULES: Solving for alpha.water
Liquid phase volume fraction = 0.4844214  Min(alpha.water) = 1.6583057e-20  Min(alpha.air) = -2.0849988e-13
diagonal:  Solving for rho, Initial residual = 0, Final residual = 0, No Iterations 0
smoothSolver:  Solving for T, Initial residual = 7.3413812e-06, Final residual = 7.0274382e-10, No Iterations 1
min(T) 279.46188
GAMG:  Solving for p_rgh, Initial residual = 0.0024989316, Final residual = 1.9209601e-05, No Iterations 1
max(U) 27.058535
min(p_rgh) 95879.305
GAMGPCG:  Solving for p_rgh, Initial residual = 3.3043378e-05, Final residual = 1.4393456e-08, No Iterations 2
max(U) 26.997339
min(p_rgh) 95878.989
ExecutionTime = 205.52 s


Courant Number mean: 0.019854572 max: 0.23513025
deltaT = 9.7391123e-05
Time = 0.4994156533

PIMPLE: iteration 1
MULES: Solving for alpha.water
Liquid phase volume fraction = 0.48442133  Min(alpha.water) = 1.6590113e-20  Min(alpha.air) = -2.0849988e-13
diagonal:  Solving for rho, Initial residual = 0, Final residual = 0, No Iterations 0
smoothSolver:  Solving for T, Initial residual = 7.3324794e-06, Final residual = 7.0947423e-10, No Iterations 1
min(T) 279.49129
GAMG:  Solving for p_rgh, Initial residual = 0.0025040464, Final residual = 1.9348559e-05, No Iterations 1
max(U) 26.736415
min(p_rgh) 95902.259
GAMGPCG:  Solving for p_rgh, Initial residual = 3.3214219e-05, Final residual = 1.4962739e-08, No Iterations 2
max(U) 26.673536
min(p_rgh) 95901.937
ExecutionTime = 205.59 s


Courant Number mean: 0.019850574 max: 0.23339727
deltaT = 9.7391123e-05
Time = 0.4995130444

PIMPLE: iteration 1
MULES: Solving for alpha.water
Liquid phase volume fraction = 0.48442126  Min(alpha.water) = 1.6597863e-20  Min(alpha.air) = -2.0849988e-13
diagonal:  Solving for rho, Initial residual = 0, Final residual = 0, No Iterations 0
smoothSolver:  Solving for T, Initial residual = 7.340549e-06, Final residual = 7.2856282e-10, No Iterations 1
min(T) 279.52088
GAMG:  Solving for p_rgh, Initial residual = 0.0025063834, Final residual = 1.93637e-05, No Iterations 1
max(U) 26.388833
min(p_rgh) 95927.677
GAMGPCG:  Solving for p_rgh, Initial residual = 3.3414093e-05, Final residual = 1.4982324e-08, No Iterations 2
max(U) 26.325771
min(p_rgh) 95927.346
ExecutionTime = 205.65 s


Courant Number mean: 0.01984648 max: 0.23099642
deltaT = 9.7391123e-05
Time = 0.4996104355

PIMPLE: iteration 1
MULES: Solving for alpha.water
Liquid phase volume fraction = 0.48442119  Min(alpha.water) = 1.6606328e-20  Min(alpha.air) = -2.0849988e-13
diagonal:  Solving for rho, Initial residual = 0, Final residual = 0, No Iterations 0
smoothSolver:  Solving for T, Initial residual = 7.3308567e-06, Final residual = 7.140352e-10, No Iterations 1
min(T) 279.55094
GAMG:  Solving for p_rgh, Initial residual = 0.0025125094, Final residual = 1.9276408e-05, No Iterations 1
max(U) 26.168422
min(p_rgh) 95954.891
GAMGPCG:  Solving for p_rgh, Initial residual = 3.2955711e-05, Final residual = 1.5148575e-08, No Iterations 2
max(U) 26.107024
min(p_rgh) 95954.534
ExecutionTime = 205.72 s


Courant Number mean: 0.0198429 max: 0.22846675
deltaT = 9.7391123e-05
Time = 0.4997078266

PIMPLE: iteration 1
MULES: Solving for alpha.water
Liquid phase volume fraction = 0.48442112  Min(alpha.water) = 1.6615525e-20  Min(alpha.air) = -2.0827784e-13
diagonal:  Solving for rho, Initial residual = 0, Final residual = 0, No Iterations 0
smoothSolver:  Solving for T, Initial residual = 7.331346e-06, Final residual = 7.2657458e-10, No Iterations 1
min(T) 279.58183
GAMG:  Solving for p_rgh, Initial residual = 0.0025229947, Final residual = 1.9378953e-05, No Iterations 1
max(U) 25.56646
min(p_rgh) 95983.869
GAMGPCG:  Solving for p_rgh, Initial residual = 3.3482044e-05, Final residual = 1.5013952e-08, No Iterations 2
max(U) 25.512647
min(p_rgh) 95983.517
ExecutionTime = 205.79 s


Courant Number mean: 0.01983863 max: 0.22430921
deltaT = 9.7391123e-05
Time = 0.4998052178

PIMPLE: iteration 1
MULES: Solving for alpha.water
Liquid phase volume fraction = 0.48442105  Min(alpha.water) = 1.662547e-20  Min(alpha.air) = -2.0827784e-13
diagonal:  Solving for rho, Initial residual = 0, Final residual = 0, No Iterations 0
smoothSolver:  Solving for T, Initial residual = 7.3295481e-06, Final residual = 7.6110018e-10, No Iterations 1
min(T) 279.6138
GAMG:  Solving for p_rgh, Initial residual = 0.002532788, Final residual = 1.9479745e-05, No Iterations 1
max(U) 25.079604
min(p_rgh) 96014.908
GAMGPCG:  Solving for p_rgh, Initial residual = 3.4704128e-05, Final residual = 1.4232171e-08, No Iterations 2
max(U) 25.031899
min(p_rgh) 96014.562
ExecutionTime = 205.85 s


Courant Number mean: 0.019833574 max: 0.22097416
deltaT = 9.7391123e-05
Time = 0.4999026089

PIMPLE: iteration 1
MULES: Solving for alpha.water
Liquid phase volume fraction = 0.48442098  Min(alpha.water) = 1.663618e-20  Min(alpha.air) = -2.0827784e-13
diagonal:  Solving for rho, Initial residual = 0, Final residual = 0, No Iterations 0
smoothSolver:  Solving for T, Initial residual = 7.3409619e-06, Final residual = 7.8598343e-10, No Iterations 1
min(T) 279.64694
GAMG:  Solving for p_rgh, Initial residual = 0.0025505161, Final residual = 1.9694122e-05, No Iterations 1
max(U) 24.634402
min(p_rgh) 96048.082
GAMGPCG:  Solving for p_rgh, Initial residual = 3.6935706e-05, Final residual = 1.2083804e-08, No Iterations 2
max(U) 24.589516
min(p_rgh) 96047.735
ExecutionTime = 205.92 s


Courant Number mean: 0.019824958 max: 0.21777263
deltaT = 9.7391123e-05
Time = 0.5

PIMPLE: iteration 1
MULES: Solving for alpha.water
Liquid phase volume fraction = 0.48442091  Min(alpha.water) = 1.6647672e-20  Min(alpha.air) = -2.0827784e-13
diagonal:  Solving for rho, Initial residual = 0, Final residual = 0, No Iterations 0
smoothSolver:  Solving for T, Initial residual = 7.3532726e-06, Final residual = 7.7750828e-10, No Iterations 1
min(T) 279.68135
GAMG:  Solving for p_rgh, Initial residual = 0.0025670051, Final residual = 1.9986373e-05, No Iterations 1
max(U) 24.214395
min(p_rgh) 96083.412
GAMGPCG:  Solving for p_rgh, Initial residual = 3.598248e-05, Final residual = 1.2378381e-08, No Iterations 2
max(U) 24.170699
min(p_rgh) 96083.073
ExecutionTime = 206.27 s


End

